<?xml version="1.0" encoding="UTF-8"?>

<!-- generated on 2026-02-15 18:23:35.836056 by Eclipse SUMO osmWebWizard.py v1_26_0+0000-fa7df22d7f1
<configuration>
    <net-file value="C:\Users\sebas\2026-02-15-18-21-36\osm.net.xml.gz"/>
    <output-trip-file value="C:\Users\sebas\2026-02-15-18-21-36\osm.bus.trips.xml"/>
    <route-file value="C:\Users\sebas\2026-02-15-18-21-36\osm.bus.rou.xml"/>
    <prefix value="bus"/>
    <trip-attributes value="departLane=&quot;best&quot;"/>
    <fringe-start-attributes value="departSpeed=&quot;max&quot;"/>
    <vehicle-class value="bus"/>
    <fringe-factor value="5"/>
    <edge-permission value="bus"/>
    <via-edge-types value="highway.motorway,highway.motorway_link,highway.trunk_link,highway.primary_link,highway.secondary_link,highway.tertiary_link"/>
    <min-distance value="600.0"/>
    <min-distance.fringe value="10.0"/>
    <remove-loops value="True"/>
    <insertion-density value="7.0"/>
</configuration>
-->

<routes xmlns:xsi="http://www.w3.org/2001/XMLSchema-instance" xsi:noNamespaceSchemaLocation="http://sumo.dlr.de/xsd/routes_file.xsd">
    <vType id="bus_bus" vClass="bus"/>
    <trip id="bus0" depart="0.00" from="25115488#0" to="-1305344772#1" departLane="best" type="bus_bus" departSpeed="max"/>
    <trip id="bus1" depart="0.60" from="-299946331#2" to="-25474369#0" departLane="best" type="bus_bus"/>
    <trip id="bus2" depart="1.21" from="25534176#1" to="25474449#2" departLane="best" type="bus_bus"/>
    <trip id="bus3" depart="1.81" from="390153065" to="-194381753#0" departLane="best" type="bus_bus"/>
    <trip id="bus4" depart="2.42" from="1038938828" to="-1382660582#1" departLane="best" type="bus_bus"/>
    <trip id="bus5" depart="3.02" from="-25534081#0" to="175298538" departLane="best" type="bus_bus"/>
    <trip id="bus6" depart="3.63" from="-1318021564" to="-25401325" departLane="best" type="bus_bus" departSpeed="max"/>
    <trip id="bus7" depart="4.23" from="25146700#0" to="222527090#2" departLane="best" type="bus_bus" departSpeed="max"/>
    <trip id="bus8" depart="4.84" from="-25534123" to="25114559#1" departLane="best" type="bus_bus"/>
    <trip id="bus9" depart="5.44" from="30989008" to="-111285865" departLane="best" type="bus_bus"/>
    <trip id="bus10" depart="6.05" from="304597418" to="25534136#3" departLane="best" type="bus_bus"/>
    <trip id="bus11" depart="6.65" from="-366207707" to="-25114574#0" departLane="best" type="bus_bus" departSpeed="max"/>
    <trip id="bus12" depart="7.26" from="651731623#8" to="-377909528#0" departLane="best" type="bus_bus"/>
    <trip id="bus13" depart="7.86" from="33541752#4" to="25146682#1" departLane="best" type="bus_bus"/>
    <trip id="bus14" depart="8.47" from="305541546#2" to="260708426" departLane="best" type="bus_bus"/>
    <trip id="bus15" depart="9.07" from="194272426" to="68867824#0" departLane="best" type="bus_bus" departSpeed="max"/>
    <trip id="bus16" depart="9.68" from="-473663046" to="226092035#1" departLane="best" type="bus_bus" departSpeed="max"/>
    <trip id="bus17" depart="10.28" from="31780217#1" to="25342844#0" departLane="best" type="bus_bus"/>
    <trip id="bus18" depart="10.89" from="362886227#1" to="25111317#0" departLane="best" type="bus_bus"/>
    <trip id="bus19" depart="11.49" from="25473756#0" to="-172376526#0" departLane="best" type="bus_bus" departSpeed="max"/>
    <trip id="bus20" depart="12.10" from="-25544885#4" to="-304597418" departLane="best" type="bus_bus"/>
    <trip id="bus21" depart="12.70" from="-207695485" to="-25508791#0" departLane="best" type="bus_bus"/>
    <trip id="bus22" depart="13.31" from="-222823987" to="-263159117#0" departLane="best" type="bus_bus"/>
    <trip id="bus23" depart="13.91" from="25114574#3" to="-49071155#1" departLane="best" type="bus_bus"/>
    <trip id="bus24" depart="14.52" from="-421321955" to="-25465173#3" departLane="best" type="bus_bus" departSpeed="max"/>
    <trip id="bus25" depart="15.12" from="-263307341" to="549800860#1" departLane="best" type="bus_bus" departSpeed="max"/>
    <trip id="bus26" depart="15.73" from="-25401279#3" to="260708424#0" departLane="best" type="bus_bus"/>
    <trip id="bus27" depart="16.33" from="-25373507#1" to="-63530594#0" departLane="best" type="bus_bus"/>
    <trip id="bus28" depart="16.94" from="785999996#1-AddedOnRampEdge" to="25401111#3" departLane="best" type="bus_bus"/>
    <trip id="bus29" depart="17.54" from="203268220#4" to="25508586" departLane="best" type="bus_bus"/>
    <trip id="bus30" depart="18.15" from="32207384#2" to="300888459#0" departLane="best" type="bus_bus"/>
    <trip id="bus31" depart="18.75" from="-25758143" to="-1453218681#1" departLane="best" type="bus_bus"/>
    <trip id="bus32" depart="19.36" from="-342165971" to="-260798421" departLane="best" type="bus_bus" departSpeed="max"/>
    <trip id="bus33" depart="19.96" from="-25508799#2" to="570537257#2" departLane="best" type="bus_bus"/>
    <trip id="bus34" depart="20.57" from="366207777#0" to="-32119996#2" departLane="best" type="bus_bus"/>
    <trip id="bus35" depart="21.17" from="25306008#3" to="-72650847#0" departLane="best" type="bus_bus"/>
    <trip id="bus36" depart="21.78" from="440619829#6" to="1418218652" departLane="best" type="bus_bus"/>
    <trip id="bus37" depart="22.38" from="-263158839#0" to="-25534399#1" departLane="best" type="bus_bus"/>
    <trip id="bus38" depart="22.99" from="207257118#7" to="-259688422" departLane="best" type="bus_bus"/>
    <trip id="bus39" depart="23.59" from="222536313#3" to="417386684" departLane="best" type="bus_bus"/>
    <trip id="bus40" depart="24.20" from="-653976489#0" to="-25473951#0" departLane="best" type="bus_bus"/>
    <trip id="bus41" depart="24.80" from="908901657-AddedOnRampEdge" to="194272459" departLane="best" type="bus_bus"/>
    <trip id="bus42" depart="25.41" from="-221249854#5" to="-172376532#1" departLane="best" type="bus_bus"/>
    <trip id="bus43" depart="26.01" from="-24841836#15" to="25349414#0" departLane="best" type="bus_bus"/>
    <trip id="bus44" depart="26.62" from="298493240#1" to="1181522540" departLane="best" type="bus_bus"/>
    <trip id="bus45" depart="27.22" from="-173943258#1" to="-64624269#0" departLane="best" type="bus_bus" departSpeed="max"/>
    <trip id="bus46" depart="27.83" from="891357536#1" to="220262063" departLane="best" type="bus_bus"/>
    <trip id="bus47" depart="28.43" from="684611726#3" to="366207685#1" departLane="best" type="bus_bus"/>
    <trip id="bus48" depart="29.04" from="-1181255194" to="258586123#2" departLane="best" type="bus_bus" departSpeed="max"/>
    <trip id="bus49" depart="29.64" from="25401150#0" to="221232881" departLane="best" type="bus_bus"/>
    <trip id="bus50" depart="30.25" from="-263307322" to="25401139#0" departLane="best" type="bus_bus" departSpeed="max"/>
    <trip id="bus51" depart="30.85" from="-25094061#1" to="1200831591#2" departLane="best" type="bus_bus"/>
    <trip id="bus52" depart="31.46" from="1204207071" to="64612218#1" departLane="best" type="bus_bus" departSpeed="max"/>
    <trip id="bus53" depart="32.06" from="366207746#1" to="-260707335#2" departLane="best" type="bus_bus"/>
    <trip id="bus54" depart="32.67" from="172376526#0" to="-25342854#0" departLane="best" type="bus_bus" departSpeed="max"/>
    <trip id="bus55" depart="33.27" from="422129546#0" to="369767730#6" departLane="best" type="bus_bus"/>
    <trip id="bus56" depart="33.88" from="-31780246#5" to="25401056#3" departLane="best" type="bus_bus" departSpeed="max"/>
    <trip id="bus57" depart="34.48" from="25094074#1" to="-25114561#0" departLane="best" type="bus_bus"/>
    <trip id="bus58" depart="35.09" from="260796525" to="221252710" departLane="best" type="bus_bus"/>
    <trip id="bus59" depart="35.69" from="263306791#1" to="220669507#0" departLane="best" type="bus_bus"/>
    <trip id="bus60" depart="36.30" from="-1199254412#1" to="483477835" departLane="best" type="bus_bus"/>
    <trip id="bus61" depart="36.90" from="371514295" to="342407719#0" departLane="best" type="bus_bus"/>
    <trip id="bus62" depart="37.51" from="-319784139#1" to="-172472929" departLane="best" type="bus_bus"/>
    <trip id="bus63" depart="38.11" from="369767730#0" to="59677109#1" departLane="best" type="bus_bus"/>
    <trip id="bus64" depart="38.72" from="-221196604#0" to="172376518" departLane="best" type="bus_bus"/>
    <trip id="bus65" depart="39.32" from="-194381734#1" to="298488305#9" departLane="best" type="bus_bus" departSpeed="max"/>
    <trip id="bus66" depart="39.93" from="260801162" to="-226092036" departLane="best" type="bus_bus" departSpeed="max"/>
    <trip id="bus67" depart="40.53" from="1448532231#1" to="222823982" departLane="best" type="bus_bus"/>
    <trip id="bus68" depart="41.14" from="-263158839#2" to="378465769" departLane="best" type="bus_bus"/>
    <trip id="bus69" depart="41.74" from="104725389" to="-25473732#0" departLane="best" type="bus_bus"/>
    <trip id="bus70" depart="42.35" from="194272454#1" to="260796526#0" departLane="best" type="bus_bus"/>
    <trip id="bus71" depart="42.95" from="-25474457" to="-319177817#2" departLane="best" type="bus_bus" departSpeed="max"/>
    <trip id="bus72" depart="43.56" from="84636487#2" to="25401335#0" departLane="best" type="bus_bus"/>
    <trip id="bus73" depart="44.16" from="117849331#0" to="202296583" departLane="best" type="bus_bus"/>
    <trip id="bus74" depart="44.77" from="-25113676#2" to="-25474421#3" departLane="best" type="bus_bus"/>
    <trip id="bus75" depart="45.37" from="-363397512" to="25114556#0" departLane="best" type="bus_bus"/>
    <trip id="bus76" depart="45.98" from="-258343374" to="-25473952#0" departLane="best" type="bus_bus"/>
    <trip id="bus77" depart="46.58" from="-194755947" to="25373488#10" departLane="best" type="bus_bus"/>
    <trip id="bus78" depart="47.19" from="360634054#1" to="-172543773#3" departLane="best" type="bus_bus"/>
    <trip id="bus79" depart="47.79" from="-258585130" to="25473921#1" departLane="best" type="bus_bus" departSpeed="max"/>
    <trip id="bus80" depart="48.40" from="-25519478#3" to="-24630785#0" departLane="best" type="bus_bus" departSpeed="max"/>
    <trip id="bus81" depart="49.00" from="549800866#0" to="25097116#0" departLane="best" type="bus_bus"/>
    <trip id="bus82" depart="49.61" from="1382357635#1" to="31008064#0" departLane="best" type="bus_bus"/>
    <trip id="bus83" depart="50.21" from="305656484#0" to="-25401018" departLane="best" type="bus_bus"/>
    <trip id="bus84" depart="50.82" from="-222536313#1" to="1198131610" departLane="best" type="bus_bus"/>
    <trip id="bus85" depart="51.42" from="104725393" to="16158604#0" departLane="best" type="bus_bus" departSpeed="max"/>
    <trip id="bus86" depart="52.03" from="25532704#0" to="25474350" departLane="best" type="bus_bus" departSpeed="max"/>
    <trip id="bus87" depart="52.63" from="727112960" to="-204140821#3" departLane="best" type="bus_bus"/>
    <trip id="bus88" depart="53.24" from="-659563555#1" to="-388535324#3" departLane="best" type="bus_bus"/>
    <trip id="bus89" depart="53.84" from="362886227#1" to="-258343327#1" departLane="best" type="bus_bus"/>
    <trip id="bus90" depart="54.45" from="-25473765#0" to="131930082#1" departLane="best" type="bus_bus"/>
    <trip id="bus91" depart="55.05" from="1038938828" to="-263306457" departLane="best" type="bus_bus"/>
    <trip id="bus92" depart="55.66" from="-260796526#1" to="472843104#0" departLane="best" type="bus_bus"/>
    <trip id="bus93" depart="56.26" from="1197094899" to="366207699" departLane="best" type="bus_bus"/>
    <trip id="bus94" depart="56.87" from="198340157#0" to="-172459467#0" departLane="best" type="bus_bus"/>
    <trip id="bus95" depart="57.47" from="984021858" to="343333845" departLane="best" type="bus_bus"/>
    <trip id="bus96" depart="58.08" from="680858774" to="483477827#4" departLane="best" type="bus_bus"/>
    <trip id="bus97" depart="58.68" from="342407716#0" to="-25146694#2" departLane="best" type="bus_bus"/>
    <trip id="bus98" depart="59.29" from="16158888" to="-25473758#0" departLane="best" type="bus_bus"/>
    <trip id="bus99" depart="59.89" from="-483477827#1" to="727112961#1" departLane="best" type="bus_bus"/>
    <trip id="bus100" depart="60.50" from="-263159117#0" to="30988988" departLane="best" type="bus_bus"/>
    <trip id="bus101" depart="61.10" from="1205565971#1" to="1184882566#0" departLane="best" type="bus_bus"/>
    <trip id="bus102" depart="61.71" from="651731623#9" to="824298079#0" departLane="best" type="bus_bus"/>
    <trip id="bus103" depart="62.31" from="202306999#0" to="258585130" departLane="best" type="bus_bus" departSpeed="max"/>
    <trip id="bus104" depart="62.92" from="-25342862#1" to="-31330665#2" departLane="best" type="bus_bus"/>
    <trip id="bus105" depart="63.52" from="675061411" to="25111945#1" departLane="best" type="bus_bus"/>
    <trip id="bus106" depart="64.13" from="194381742#1" to="263306475" departLane="best" type="bus_bus"/>
    <trip id="bus107" depart="64.73" from="-172450756#1" to="25113505#0" departLane="best" type="bus_bus"/>
    <trip id="bus108" depart="65.34" from="172427463#1" to="363238146" departLane="best" type="bus_bus"/>
    <trip id="bus109" depart="65.94" from="-25348686#0" to="656339515" departLane="best" type="bus_bus"/>
    <trip id="bus110" depart="66.55" from="-215438986#1" to="-25373488#3" departLane="best" type="bus_bus"/>
    <trip id="bus111" depart="67.15" from="227891900#1" to="25474421#0" departLane="best" type="bus_bus"/>
    <trip id="bus112" depart="67.76" from="-258583063#0" to="-222371681#2" departLane="best" type="bus_bus"/>
    <trip id="bus113" depart="68.36" from="389730975#0" to="-25534399#1" departLane="best" type="bus_bus"/>
    <trip id="bus114" depart="68.97" from="227891837#6" to="25342847#5" departLane="best" type="bus_bus"/>
    <trip id="bus115" depart="69.57" from="1031838266" to="25113497" departLane="best" type="bus_bus"/>
    <trip id="bus116" depart="70.18" from="172538020" to="509354019#2" departLane="best" type="bus_bus" departSpeed="max"/>
    <trip id="bus117" depart="70.78" from="-25474533#1" to="258585116" departLane="best" type="bus_bus"/>
    <trip id="bus118" depart="71.39" from="-258585737" to="-72650847#0" departLane="best" type="bus_bus" departSpeed="max"/>
    <trip id="bus119" depart="71.99" from="25373474#6" to="-31448589#1" departLane="best" type="bus_bus"/>
    <trip id="bus120" depart="72.60" from="-342175391" to="26428110" departLane="best" type="bus_bus" departSpeed="max"/>
    <trip id="bus121" depart="73.20" from="-194757687#0" to="1418218648" departLane="best" type="bus_bus"/>
    <trip id="bus122" depart="73.81" from="937318609#5" to="84636484#1" departLane="best" type="bus_bus"/>
    <trip id="bus123" depart="74.41" from="-198399079#2" to="-25473756#0" departLane="best" type="bus_bus"/>
    <trip id="bus124" depart="75.02" from="-263159117#0" to="49374837" departLane="best" type="bus_bus"/>
    <trip id="bus125" depart="75.62" from="378543587#2" to="383269250#1" departLane="best" type="bus_bus"/>
    <trip id="bus126" depart="76.23" from="-421321953" to="-25115479#0" departLane="best" type="bus_bus" departSpeed="max"/>
    <trip id="bus127" depart="76.83" from="31822601#2" to="25534421" departLane="best" type="bus_bus"/>
    <trip id="bus128" depart="77.44" from="25097116#3" to="748114119#0" departLane="best" type="bus_bus"/>
    <trip id="bus129" depart="78.04" from="25266068#1" to="-1138574867" departLane="best" type="bus_bus"/>
    <trip id="bus130" depart="78.65" from="-25115501#13" to="-221252046#3" departLane="best" type="bus_bus"/>
    <trip id="bus131" depart="79.25" from="-24619892#2" to="227891837#0" departLane="best" type="bus_bus" departSpeed="max"/>
    <trip id="bus132" depart="79.86" from="-298981125#0" to="25146685#2" departLane="best" type="bus_bus"/>
    <trip id="bus133" depart="80.46" from="25474468#0" to="-25439690#3" departLane="best" type="bus_bus" departSpeed="max"/>
    <trip id="bus134" depart="81.07" from="25114570#4" to="-260707337#0" departLane="best" type="bus_bus"/>
    <trip id="bus135" depart="81.67" from="16813289#1" to="418153571" departLane="best" type="bus_bus"/>
    <trip id="bus136" depart="82.28" from="324540756#6" to="-194757681#0" departLane="best" type="bus_bus"/>
    <trip id="bus137" depart="82.88" from="104725393" to="-263157921#1" departLane="best" type="bus_bus" departSpeed="max"/>
    <trip id="bus138" depart="83.49" from="-1092769055" to="299887271#2" departLane="best" type="bus_bus" departSpeed="max"/>
    <trip id="bus139" depart="84.09" from="25114797#1" to="-259688041#0" departLane="best" type="bus_bus"/>
    <trip id="bus140" depart="84.70" from="25544885#2" to="226090190#1" departLane="best" type="bus_bus"/>
    <trip id="bus141" depart="85.30" from="108852986" to="-1158026720" departLane="best" type="bus_bus" departSpeed="max"/>
    <trip id="bus142" depart="85.91" from="-202306999#3" to="388535324#2" departLane="best" type="bus_bus"/>
    <trip id="bus143" depart="86.51" from="417421511" to="222536313#2" departLane="best" type="bus_bus" departSpeed="max"/>
    <trip id="bus144" depart="87.12" from="31822618#0" to="25113485" departLane="best" type="bus_bus"/>
    <trip id="bus145" depart="87.72" from="-25316179#10" to="-226092030#1" departLane="best" type="bus_bus"/>
    <trip id="bus146" depart="88.33" from="-319785277#7" to="417415897#3" departLane="best" type="bus_bus"/>
    <trip id="bus147" depart="88.93" from="298985986#3" to="366207685#0" departLane="best" type="bus_bus"/>
    <trip id="bus148" depart="89.54" from="407098966#0" to="-25470361#1" departLane="best" type="bus_bus"/>
    <trip id="bus149" depart="90.14" from="26338567#0" to="389745886#1" departLane="best" type="bus_bus"/>
    <trip id="bus150" depart="90.74" from="-671688191" to="25342854#2" departLane="best" type="bus_bus" departSpeed="max"/>
    <trip id="bus151" depart="91.35" from="-25342860#1" to="483477836" departLane="best" type="bus_bus"/>
    <trip id="bus152" depart="91.95" from="310096358#4" to="383428082" departLane="best" type="bus_bus"/>
    <trip id="bus153" depart="92.56" from="-1299186485" to="260806527#3" departLane="best" type="bus_bus"/>
    <trip id="bus154" depart="93.16" from="-362886525#9" to="49069534#1" departLane="best" type="bus_bus"/>
    <trip id="bus155" depart="93.77" from="300747003#0" to="366207733#2" departLane="best" type="bus_bus"/>
    <trip id="bus156" depart="94.37" from="310096358#3" to="-260798420#0" departLane="best" type="bus_bus"/>
    <trip id="bus157" depart="94.98" from="296152662#1" to="-220260236" departLane="best" type="bus_bus"/>
    <trip id="bus158" depart="95.58" from="366207712" to="363819374" departLane="best" type="bus_bus"/>
    <trip id="bus159" depart="96.19" from="-25534170#3" to="319178018#1" departLane="best" type="bus_bus"/>
    <trip id="bus160" depart="96.79" from="12665899#3" to="-31780246#0" departLane="best" type="bus_bus"/>
    <trip id="bus161" depart="97.40" from="298982137#0" to="-25474521#0" departLane="best" type="bus_bus"/>
    <trip id="bus162" depart="98.00" from="-1209117737" to="-25401154#2" departLane="best" type="bus_bus" departSpeed="max"/>
    <trip id="bus163" depart="98.61" from="-360610413#1" to="366207733#5" departLane="best" type="bus_bus"/>
    <trip id="bus164" depart="99.21" from="660165371#0" to="-263307116#0" departLane="best" type="bus_bus" departSpeed="max"/>
    <trip id="bus165" depart="99.82" from="25115495#0" to="-96330341#0" departLane="best" type="bus_bus"/>
    <trip id="bus166" depart="100.42" from="717612321#0" to="221228813#4" departLane="best" type="bus_bus"/>
    <trip id="bus167" depart="101.03" from="557440999" to="-221252046#2" departLane="best" type="bus_bus"/>
    <trip id="bus168" depart="101.63" from="68310467" to="-25342853#1" departLane="best" type="bus_bus" departSpeed="max"/>
    <trip id="bus169" depart="102.24" from="657749010" to="-260796526#0" departLane="best" type="bus_bus"/>
    <trip id="bus170" depart="102.84" from="-24630785#1" to="1200826467" departLane="best" type="bus_bus"/>
    <trip id="bus171" depart="103.45" from="25532500#1" to="-319181219" departLane="best" type="bus_bus"/>
    <trip id="bus172" depart="104.05" from="25094057" to="194381734#1" departLane="best" type="bus_bus" departSpeed="max"/>
    <trip id="bus173" depart="104.66" from="-49290003#7" to="25111168#5" departLane="best" type="bus_bus"/>
    <trip id="bus174" depart="105.26" from="-260804833" to="258343381#0" departLane="best" type="bus_bus" departSpeed="max"/>
    <trip id="bus175" depart="105.87" from="-1043593931#1" to="480884933" departLane="best" type="bus_bus" departSpeed="max"/>
    <trip id="bus176" depart="106.47" from="194272447#0" to="258585737" departLane="best" type="bus_bus" departSpeed="max"/>
    <trip id="bus177" depart="107.08" from="25547560#2" to="25473955#0" departLane="best" type="bus_bus"/>
    <trip id="bus178" depart="107.68" from="-418167127#1" to="-172540218#0" departLane="best" type="bus_bus"/>
    <trip id="bus179" depart="108.29" from="25342874" to="-363244240#0" departLane="best" type="bus_bus"/>
    <trip id="bus180" depart="108.89" from="-324541011#2" to="362866994#1" departLane="best" type="bus_bus" departSpeed="max"/>
    <trip id="bus181" depart="109.50" from="25474521#4" to="-31734208" departLane="best" type="bus_bus"/>
    <trip id="bus182" depart="110.10" from="-319789457" to="1054098546" departLane="best" type="bus_bus"/>
    <trip id="bus183" depart="110.71" from="-659435425" to="-310174738" departLane="best" type="bus_bus"/>
    <trip id="bus184" depart="111.31" from="-25114566" to="1181255194" departLane="best" type="bus_bus"/>
    <trip id="bus185" depart="111.92" from="559684378#7" to="25474457" departLane="best" type="bus_bus"/>
    <trip id="bus186" depart="112.52" from="417402765#0" to="25316179#13" departLane="best" type="bus_bus"/>
    <trip id="bus187" depart="113.13" from="-31822615#1" to="222823971#1" departLane="best" type="bus_bus" departSpeed="max"/>
    <trip id="bus188" depart="113.73" from="-1000972456" to="-299887731#2" departLane="best" type="bus_bus" departSpeed="max"/>
    <trip id="bus189" depart="114.34" from="111285865" to="25111953#0" departLane="best" type="bus_bus" departSpeed="max"/>
    <trip id="bus190" depart="114.94" from="25266070#1" to="149633288#2" departLane="best" type="bus_bus"/>
    <trip id="bus191" depart="115.55" from="1196894861" to="-25473758#0" departLane="best" type="bus_bus"/>
    <trip id="bus192" depart="116.15" from="1384359788" to="417428636#4" departLane="best" type="bus_bus"/>
    <trip id="bus193" depart="116.76" from="298985986#2" to="-25215033#0" departLane="best" type="bus_bus"/>
    <trip id="bus194" depart="117.36" from="-220276000#3" to="196599256#0" departLane="best" type="bus_bus"/>
    <trip id="bus195" depart="117.97" from="25114568" to="-366207740" departLane="best" type="bus_bus"/>
    <trip id="bus196" depart="118.57" from="31430360#0" to="26339687#0" departLane="best" type="bus_bus"/>
    <trip id="bus197" depart="119.18" from="25373493#2" to="-25474421#2" departLane="best" type="bus_bus"/>
    <trip id="bus198" depart="119.78" from="-25474387#2" to="-127853967#4" departLane="best" type="bus_bus" departSpeed="max"/>
    <trip id="bus199" depart="120.39" from="-259619457" to="16814426#5" departLane="best" type="bus_bus"/>
    <trip id="bus200" depart="120.99" from="342409645" to="-175298847" departLane="best" type="bus_bus"/>
    <trip id="bus201" depart="121.60" from="-761524556" to="25373473#1" departLane="best" type="bus_bus"/>
    <trip id="bus202" depart="122.20" from="-25473949" to="25534081#2" departLane="best" type="bus_bus"/>
    <trip id="bus203" depart="122.81" from="17152908#2" to="-25534200#0" departLane="best" type="bus_bus"/>
    <trip id="bus204" depart="123.41" from="25315716#2" to="-108853039#5" departLane="best" type="bus_bus"/>
    <trip id="bus205" depart="124.02" from="258583371" to="299887266#5" departLane="best" type="bus_bus"/>
    <trip id="bus206" depart="124.62" from="-24619892#0" to="1196879175#1" departLane="best" type="bus_bus"/>
    <trip id="bus207" depart="125.23" from="-25401365#0" to="652322208#3" departLane="best" type="bus_bus"/>
    <trip id="bus208" depart="125.83" from="172536119" to="-172450756#0" departLane="best" type="bus_bus" departSpeed="max"/>
    <trip id="bus209" depart="126.44" from="-260708424#3" to="362875593#0" departLane="best" type="bus_bus"/>
    <trip id="bus210" depart="127.04" from="25348671#0" to="748561932" departLane="best" type="bus_bus"/>
    <trip id="bus211" depart="127.65" from="231961200#0" to="63521720#2" departLane="best" type="bus_bus" departSpeed="max"/>
    <trip id="bus212" depart="128.25" from="389987735#0" to="25266068#0" departLane="best" type="bus_bus"/>
    <trip id="bus213" depart="128.86" from="25474514#1" to="17414774#2" departLane="best" type="bus_bus"/>
    <trip id="bus214" depart="129.46" from="31780230#0" to="222823971#1" departLane="best" type="bus_bus"/>
    <trip id="bus215" depart="130.07" from="401998293" to="263154081#0" departLane="best" type="bus_bus"/>
    <trip id="bus216" depart="130.67" from="1447223676#0" to="-259615499" departLane="best" type="bus_bus"/>
    <trip id="bus217" depart="131.28" from="-260707335#3" to="25401016#1" departLane="best" type="bus_bus"/>
    <trip id="bus218" depart="131.88" from="260801162" to="204135702" departLane="best" type="bus_bus" departSpeed="max"/>
    <trip id="bus219" depart="132.49" from="25113676#0" to="-263155766#1" departLane="best" type="bus_bus" departSpeed="max"/>
    <trip id="bus220" depart="133.09" from="-207257118#1" to="-299593515" departLane="best" type="bus_bus"/>
    <trip id="bus221" depart="133.70" from="-298977074#0" to="-351309804#3" departLane="best" type="bus_bus"/>
    <trip id="bus222" depart="134.30" from="194272482#0" to="-25094825#2" departLane="best" type="bus_bus"/>
    <trip id="bus223" depart="134.91" from="25473771" to="-172536126#0" departLane="best" type="bus_bus" departSpeed="max"/>
    <trip id="bus224" depart="135.51" from="-68257676#1" to="221360966#1" departLane="best" type="bus_bus" departSpeed="max"/>
    <trip id="bus225" depart="136.12" from="-84636487#1" to="-25440566#2" departLane="best" type="bus_bus"/>
    <trip id="bus226" depart="136.72" from="1038927907#0" to="418146498" departLane="best" type="bus_bus"/>
    <trip id="bus227" depart="137.33" from="222527091#4" to="25534068#4" departLane="best" type="bus_bus"/>
    <trip id="bus228" depart="137.93" from="360167609#2" to="298981124" departLane="best" type="bus_bus"/>
    <trip id="bus229" depart="138.54" from="-483477830" to="-109789190#0" departLane="best" type="bus_bus" departSpeed="max"/>
    <trip id="bus230" depart="139.14" from="-395157449#1" to="26428530#3" departLane="best" type="bus_bus" departSpeed="max"/>
    <trip id="bus231" depart="139.75" from="353331220" to="64270500" departLane="best" type="bus_bus"/>
    <trip id="bus232" depart="140.35" from="1031710068#0" to="263306475" departLane="best" type="bus_bus"/>
    <trip id="bus233" depart="140.96" from="194755967#1" to="25146681#2" departLane="best" type="bus_bus"/>
    <trip id="bus234" depart="141.56" from="-25534132" to="-25473951#0" departLane="best" type="bus_bus"/>
    <trip id="bus235" depart="142.17" from="1164501205" to="-1363892763" departLane="best" type="bus_bus" departSpeed="max"/>
    <trip id="bus236" depart="142.77" from="-659828975#2" to="-25146691#0" departLane="best" type="bus_bus"/>
    <trip id="bus237" depart="143.38" from="1344685747" to="-226092030#1" departLane="best" type="bus_bus"/>
    <trip id="bus238" depart="143.98" from="25112798#1" to="-1328780404" departLane="best" type="bus_bus"/>
    <trip id="bus239" depart="144.59" from="-63522992" to="24855888#6" departLane="best" type="bus_bus"/>
    <trip id="bus240" depart="145.19" from="-1334174317" to="25401154#3" departLane="best" type="bus_bus"/>
    <trip id="bus241" depart="145.80" from="-25146677#1" to="1451247464#8" departLane="best" type="bus_bus" departSpeed="max"/>
    <trip id="bus242" depart="146.40" from="-172380101#2" to="-63523027#1" departLane="best" type="bus_bus" departSpeed="max"/>
    <trip id="bus243" depart="147.01" from="-25508805#2" to="-362887052" departLane="best" type="bus_bus" departSpeed="max"/>
    <trip id="bus244" depart="147.61" from="260707337#0" to="-63523027#1" departLane="best" type="bus_bus" departSpeed="max"/>
    <trip id="bus245" depart="148.22" from="258585126#1" to="342407719#1-AddedOnRampEdge" departLane="best" type="bus_bus"/>
    <trip id="bus246" depart="148.82" from="-260797486#4" to="-194272447#0" departLane="best" type="bus_bus" departSpeed="max"/>
    <trip id="bus247" depart="149.43" from="-1199254411" to="221254337#1" departLane="best" type="bus_bus"/>
    <trip id="bus248" depart="150.03" from="999291610" to="-418167125#0" departLane="best" type="bus_bus"/>
    <trip id="bus249" depart="150.64" from="25146702" to="305656563" departLane="best" type="bus_bus"/>
    <trip id="bus250" depart="151.24" from="25215033#1" to="26697278" departLane="best" type="bus_bus"/>
    <trip id="bus251" depart="151.85" from="63523005" to="-25401337" departLane="best" type="bus_bus" departSpeed="max"/>
    <trip id="bus252" depart="152.45" from="-1200831592" to="-25114559#0" departLane="best" type="bus_bus"/>
    <trip id="bus253" depart="153.06" from="-25114563" to="25473930#0" departLane="best" type="bus_bus" departSpeed="max"/>
    <trip id="bus254" depart="153.66" from="215457449" to="-25473939#0" departLane="best" type="bus_bus" departSpeed="max"/>
    <trip id="bus255" depart="154.27" from="25458069" to="298985986#2" departLane="best" type="bus_bus" departSpeed="max"/>
    <trip id="bus256" depart="154.87" from="-25401148#1" to="25146691#1" departLane="best" type="bus_bus"/>
    <trip id="bus257" depart="155.48" from="258576633" to="-221235170#1" departLane="best" type="bus_bus"/>