<?xml version="1.0" encoding="UTF-8"?>

<!-- generated on 2026-02-15 19:03:41.818014 by Eclipse SUMO osmWebWizard.py v1_26_0+0000-fa7df22d7f1
<configuration>
    <net-file value="C:\Users\sebas\2026-02-15-18-21-36\osm.net.xml.gz"/>
    <output-trip-file value="C:\Users\sebas\2026-02-15-18-21-36\osm.truck.trips.xml"/>
    <route-file value="C:\Users\sebas\2026-02-15-18-21-36\osm.truck.rou.xml"/>
    <prefix value="truck"/>
    <trip-attributes value="departLane=&quot;best&quot;"/>
    <fringe-start-attributes value="departSpeed=&quot;max&quot;"/>
    <vehicle-class value="truck"/>
    <fringe-factor value="5"/>
    <edge-permission value="truck"/>
    <via-edge-types value="highway.motorway,highway.motorway_link,highway.trunk_link,highway.primary_link,highway.secondary_link,highway.tertiary_link"/>
    <seed value="45"/>
    <min-distance value="600.0"/>
    <min-distance.fringe value="10.0"/>
    <remove-loops value="True"/>
    <insertion-density value="22.0"/>
</configuration>
-->

<routes xmlns:xsi="http://www.w3.org/2001/XMLSchema-instance" xsi:noNamespaceSchemaLocation="http://sumo.dlr.de/xsd/routes_file.xsd">
    <vType id="truck_truck" vClass="truck"/>
    <trip id="truck0" depart="0.00" from="-298977074#0" to="172376529#1" departLane="best" type="truck_truck"/>
    <trip id="truck1" depart="0.19" from="-218402994#1" to="-383428091" departLane="best" type="truck_truck" departSpeed="max"/>
    <trip id="truck2" depart="0.39" from="-194757680#2" to="-1168153039#2" departLane="best" type="truck_truck"/>
    <trip id="truck3" depart="0.58" from="-30984842#1" to="-221358315#1" departLane="best" type="truck_truck" departSpeed="max"/>
    <trip id="truck4" depart="0.77" from="-323111248#2" to="263154081#0" departLane="best" type="truck_truck" departSpeed="max"/>
    <trip id="truck5" depart="0.96" from="-16158612#1" to="25347814#8" departLane="best" type="truck_truck"/>
    <trip id="truck6" depart="1.16" from="-25115501#9" to="31437744#1" departLane="best" type="truck_truck"/>
    <trip id="truck7" depart="1.35" from="25534176#3" to="-25473710#0" departLane="best" type="truck_truck"/>
    <trip id="truck8" depart="1.54" from="342175390" to="258585127" departLane="best" type="truck_truck"/>
    <trip id="truck9" depart="1.73" from="-202306999#1" to="1054098546" departLane="best" type="truck_truck"/>
    <trip id="truck10" depart="1.93" from="25458160#0" to="472842696#1" departLane="best" type="truck_truck"/>
    <trip id="truck11" depart="2.12" from="263157516#4" to="657749174#1" departLane="best" type="truck_truck"/>
    <trip id="truck12" depart="2.31" from="-221360826#1" to="-194757650#0" departLane="best" type="truck_truck"/>
    <trip id="truck13" depart="2.50" from="258583063#4" to="-324541011#0" departLane="best" type="truck_truck"/>
    <trip id="truck14" depart="2.70" from="-52168350#0" to="380676870#1" departLane="best" type="truck_truck"/>
    <trip id="truck15" depart="2.89" from="258429985" to="25458160#5" departLane="best" type="truck_truck" departSpeed="max"/>
    <trip id="truck16" depart="3.08" from="363397508#1" to="260797486#4" departLane="best" type="truck_truck"/>
    <trip id="truck17" depart="3.27" from="310096358#0" to="25401160#1" departLane="best" type="truck_truck" departSpeed="max"/>
    <trip id="truck18" depart="3.47" from="227891830#0" to="-172472936" departLane="best" type="truck_truck" departSpeed="max"/>
    <trip id="truck19" depart="3.66" from="418167127#5" to="421321955" departLane="best" type="truck_truck"/>
    <trip id="truck20" depart="3.85" from="-394706182#1" to="25349341#0" departLane="best" type="truck_truck"/>
    <trip id="truck21" depart="4.04" from="-1197108947#1" to="172472688#3" departLane="best" type="truck_truck"/>
    <trip id="truck22" depart="4.24" from="25112802#8" to="-310096358#1" departLane="best" type="truck_truck"/>
    <trip id="truck23" depart="4.43" from="-748561932" to="343333132" departLane="best" type="truck_truck" departSpeed="max"/>
    <trip id="truck24" depart="4.62" from="-25215031#2" to="13774544#5" departLane="best" type="truck_truck"/>
    <trip id="truck25" depart="4.81" from="-221204807#2" to="-655655655#4" departLane="best" type="truck_truck"/>
    <trip id="truck26" depart="5.01" from="378696128#4" to="25266068#1" departLane="best" type="truck_truck"/>
    <trip id="truck27" depart="5.20" from="-1363892763" to="364015969" departLane="best" type="truck_truck"/>
    <trip id="truck28" depart="5.39" from="-31430398#0" to="-31734210#0" departLane="best" type="truck_truck"/>
    <trip id="truck29" depart="5.58" from="-25440591#1" to="25342861#3" departLane="best" type="truck_truck" departSpeed="max"/>
    <trip id="truck30" depart="5.78" from="-172380101#0" to="572769823#1" departLane="best" type="truck_truck"/>
    <trip id="truck31" depart="5.97" from="-226092035#1" to="25347747#6" departLane="best" type="truck_truck" departSpeed="max"/>
    <trip id="truck32" depart="6.16" from="221232880#5" to="-483477827#0" departLane="best" type="truck_truck"/>
    <trip id="truck33" depart="6.35" from="-303558339#1" to="1205256660#4" departLane="best" type="truck_truck"/>
    <trip id="truck34" depart="6.55" from="-361078912#2" to="680858784#1" departLane="best" type="truck_truck"/>
    <trip id="truck35" depart="6.74" from="25115796#5" to="202304532" departLane="best" type="truck_truck"/>
    <trip id="truck36" depart="6.93" from="25342861#0" to="172450421#0" departLane="best" type="truck_truck"/>
    <trip id="truck37" depart="7.12" from="-25316179#7" to="-122402608#0" departLane="best" type="truck_truck"/>
    <trip id="truck38" depart="7.32" from="68310467" to="360601648" departLane="best" type="truck_truck" departSpeed="max"/>
    <trip id="truck39" depart="7.51" from="-222367943#7" to="25215034#8" departLane="best" type="truck_truck"/>
    <trip id="truck40" depart="7.70" from="267930747#0" to="415556258" departLane="best" type="truck_truck"/>
    <trip id="truck41" depart="7.89" from="-178404560" to="-24630785#0" departLane="best" type="truck_truck" departSpeed="max"/>
    <trip id="truck42" depart="8.09" from="-601451915#0" to="25146681#2" departLane="best" type="truck_truck"/>
    <trip id="truck43" depart="8.28" from="-219620179" to="25534081#2" departLane="best" type="truck_truck" departSpeed="max"/>
    <trip id="truck44" depart="8.47" from="258586123#2" to="1309809532" departLane="best" type="truck_truck"/>
    <trip id="truck45" depart="8.66" from="342407716#0" to="-680858784#0" departLane="best" type="truck_truck"/>
    <trip id="truck46" depart="8.86" from="31822018" to="-652322207#2" departLane="best" type="truck_truck" departSpeed="max"/>
    <trip id="truck47" depart="9.05" from="-659433946" to="-63523006" departLane="best" type="truck_truck" departSpeed="max"/>
    <trip id="truck48" depart="9.24" from="25473939#2" to="388535324#1" departLane="best" type="truck_truck"/>
    <trip id="truck49" depart="9.43" from="-194757680#1" to="25114563" departLane="best" type="truck_truck"/>
    <trip id="truck50" depart="9.63" from="31822619#0" to="25533259#1" departLane="best" type="truck_truck" departSpeed="max"/>
    <trip id="truck51" depart="9.82" from="-258577334" to="-49068191#1" departLane="best" type="truck_truck"/>
    <trip id="truck52" depart="10.01" from="383269250#0" to="-25473801#1" departLane="best" type="truck_truck"/>
    <trip id="truck53" depart="10.20" from="64612218#1" to="-696485817#1" departLane="best" type="truck_truck"/>
    <trip id="truck54" depart="10.40" from="172538009" to="258343331#1" departLane="best" type="truck_truck" departSpeed="max"/>
    <trip id="truck55" depart="10.59" from="25401139#3" to="25114564" departLane="best" type="truck_truck"/>
    <trip id="truck56" depart="10.78" from="363397508#0" to="25401134#0" departLane="best" type="truck_truck"/>
    <trip id="truck57" depart="10.97" from="444435787" to="25401366" departLane="best" type="truck_truck" departSpeed="max"/>
    <trip id="truck58" depart="11.17" from="222823979#0" to="-172472687" departLane="best" type="truck_truck" departSpeed="max"/>
    <trip id="truck59" depart="11.36" from="418010635#1" to="-25474537#0" departLane="best" type="truck_truck"/>
    <trip id="truck60" depart="11.55" from="-25534258#3" to="-172441842#0" departLane="best" type="truck_truck"/>
    <trip id="truck61" depart="11.74" from="25266061#2" to="31823378" departLane="best" type="truck_truck"/>
    <trip id="truck62" depart="11.94" from="572220181" to="31744338" departLane="best" type="truck_truck"/>
    <trip id="truck63" depart="12.13" from="318883605#2" to="-64624269#0" departLane="best" type="truck_truck"/>
    <trip id="truck64" depart="12.32" from="-172441842#1" to="299887264#0" departLane="best" type="truck_truck" departSpeed="max"/>
    <trip id="truck65" depart="12.51" from="84636487#1" to="1451976445#6" departLane="best" type="truck_truck"/>
    <trip id="truck66" depart="12.71" from="407098966#0" to="25091143#0" departLane="best" type="truck_truck"/>
    <trip id="truck67" depart="12.90" from="-49290003#4" to="342409645" departLane="best" type="truck_truck"/>
    <trip id="truck68" depart="13.09" from="-172543773#4" to="-483477827#5" departLane="best" type="truck_truck" departSpeed="max"/>
    <trip id="truck69" depart="13.28" from="25440463#12" to="-194272447#0" departLane="best" type="truck_truck"/>
    <trip id="truck70" depart="13.48" from="199582048" to="-677125574" departLane="best" type="truck_truck" departSpeed="max"/>
    <trip id="truck71" depart="13.67" from="-25534108#1" to="1043593931#1" departLane="best" type="truck_truck" departSpeed="max"/>
    <trip id="truck72" depart="13.86" from="258343327#4" to="25473952#1" departLane="best" type="truck_truck"/>
    <trip id="truck73" depart="14.05" from="226090363#0" to="300888462#0" departLane="best" type="truck_truck"/>
    <trip id="truck74" depart="14.25" from="-70191681#1" to="25112795" departLane="best" type="truck_truck"/>
    <trip id="truck75" depart="14.44" from="-222823973" to="25440778" departLane="best" type="truck_truck" departSpeed="max"/>
    <trip id="truck76" depart="14.63" from="25347814#8" to="25348707#1" departLane="best" type="truck_truck"/>
    <trip id="truck77" depart="14.82" from="299866719#0" to="72648734#1" departLane="best" type="truck_truck"/>
    <trip id="truck78" depart="15.02" from="25474592" to="698899190#27" departLane="best" type="truck_truck" departSpeed="max"/>
    <trip id="truck79" depart="15.21" from="25266068#2" to="-263158839#0" departLane="best" type="truck_truck"/>
    <trip id="truck80" depart="15.40" from="363241928" to="25473930#2" departLane="best" type="truck_truck" departSpeed="max"/>
    <trip id="truck81" depart="15.59" from="25113676#0" to="-25112795" departLane="best" type="truck_truck" departSpeed="max"/>
    <trip id="truck82" depart="15.79" from="218402994#0" to="-391632268#1" departLane="best" type="truck_truck" departSpeed="max"/>
    <trip id="truck83" depart="15.98" from="221234566#1" to="473664753#0" departLane="best" type="truck_truck"/>
    <trip id="truck84" depart="16.17" from="-483477833" to="-1198478320" departLane="best" type="truck_truck"/>
    <trip id="truck85" depart="16.36" from="-25113683#3" to="221252051#0" departLane="best" type="truck_truck"/>
    <trip id="truck86" depart="16.56" from="32207384#2" to="-172430235" departLane="best" type="truck_truck"/>
    <trip id="truck87" depart="16.75" from="-713684973#1" to="-384704766#1" departLane="best" type="truck_truck"/>
    <trip id="truck88" depart="16.94" from="1196643900" to="25349416#0" departLane="best" type="truck_truck"/>
    <trip id="truck89" depart="17.13" from="172427463#0" to="-260806532#0" departLane="best" type="truck_truck" departSpeed="max"/>
    <trip id="truck90" depart="17.33" from="364015969" to="31822601#5" departLane="best" type="truck_truck"/>
    <trip id="truck91" depart="17.52" from="193128810" to="-25519478#0" departLane="best" type="truck_truck" departSpeed="max"/>
    <trip id="truck92" depart="17.71" from="-222527091#3" to="483477827#9" departLane="best" type="truck_truck"/>
    <trip id="truck93" depart="17.90" from="25342841#4" to="13774626#8" departLane="best" type="truck_truck"/>
    <trip id="truck94" depart="18.10" from="260801162" to="362875594#1" departLane="best" type="truck_truck" departSpeed="max"/>
    <trip id="truck95" depart="18.29" from="1328780405" to="-220077155#1" departLane="best" type="truck_truck"/>
    <trip id="truck96" depart="18.48" from="1022979425" to="-25401160#0" departLane="best" type="truck_truck" departSpeed="max"/>
    <trip id="truck97" depart="18.67" from="172538009" to="366207795#1" departLane="best" type="truck_truck" departSpeed="max"/>
    <trip id="truck98" depart="18.87" from="49907764#0" to="-25097125#1" departLane="best" type="truck_truck"/>
    <trip id="truck99" depart="19.06" from="-25111953#0" to="786001766#0" departLane="best" type="truck_truck"/>
    <trip id="truck100" depart="19.25" from="172540197#0" to="25373522#1" departLane="best" type="truck_truck" departSpeed="max"/>
    <trip id="truck101" depart="19.44" from="25439701#0" to="1137557391" departLane="best" type="truck_truck" departSpeed="max"/>
    <trip id="truck102" depart="19.64" from="-63523002#2" to="372524290#1" departLane="best" type="truck_truck"/>
    <trip id="truck103" depart="19.83" from="25112804" to="-122402608#0" departLane="best" type="truck_truck" departSpeed="max"/>
    <trip id="truck104" depart="20.02" from="227891830#0" to="263158399#0" departLane="best" type="truck_truck" departSpeed="max"/>
    <trip id="truck105" depart="20.21" from="-378715889#1" to="-49369840#2" departLane="best" type="truck_truck"/>
    <trip id="truck106" depart="20.41" from="-366207735#3" to="-310096358#1" departLane="best" type="truck_truck"/>
    <trip id="truck107" depart="20.60" from="63523002#4" to="380676869#1" departLane="best" type="truck_truck"/>
    <trip id="truck108" depart="20.79" from="194755944" to="-17153173#0" departLane="best" type="truck_truck" departSpeed="max"/>
    <trip id="truck109" depart="20.98" from="483477827#3" to="31822600#0" departLane="best" type="truck_truck"/>
    <trip id="truck110" depart="21.18" from="25115483" to="659433386" departLane="best" type="truck_truck"/>
    <trip id="truck111" depart="21.37" from="25866253" to="25146691#1" departLane="best" type="truck_truck"/>
    <trip id="truck112" depart="21.56" from="-363397510#1" to="25342870" departLane="best" type="truck_truck"/>
    <trip id="truck113" depart="21.75" from="1038938827#1" to="-25316179#7" departLane="best" type="truck_truck"/>
    <trip id="truck114" depart="21.95" from="-25373494#2" to="-219620346#1" departLane="best" type="truck_truck"/>
    <trip id="truck115" depart="22.14" from="25401170#0" to="-63523002#2" departLane="best" type="truck_truck" departSpeed="max"/>
    <trip id="truck116" depart="22.33" from="769463984" to="444435791#1" departLane="best" type="truck_truck"/>
    <trip id="truck117" depart="22.52" from="-310096357#3" to="-207257118#3" departLane="best" type="truck_truck"/>
    <trip id="truck118" depart="22.72" from="31780246#0" to="362886229#2" departLane="best" type="truck_truck" departSpeed="max"/>
    <trip id="truck119" depart="22.91" from="-418422352" to="298492231#1" departLane="best" type="truck_truck"/>
    <trip id="truck120" depart="23.10" from="556841680" to="1305344772#2" departLane="best" type="truck_truck"/>
    <trip id="truck121" depart="23.29" from="1196913412" to="25342838#0" departLane="best" type="truck_truck"/>
    <trip id="truck122" depart="23.49" from="324540717#1" to="25534416" departLane="best" type="truck_truck"/>
    <trip id="truck123" depart="23.68" from="-221360966#1" to="-222527090#2" departLane="best" type="truck_truck"/>
    <trip id="truck124" depart="23.87" from="559684378#7" to="-31337071#0" departLane="best" type="truck_truck"/>
    <trip id="truck125" depart="24.06" from="-198399079#5" to="-25114549#2" departLane="best" type="truck_truck"/>
    <trip id="truck126" depart="24.26" from="-1201572357" to="221204807#0" departLane="best" type="truck_truck" departSpeed="max"/>
    <trip id="truck127" depart="24.45" from="25114574#0" to="-298492231#3" departLane="best" type="truck_truck" departSpeed="max"/>
    <trip id="truck128" depart="24.64" from="-1199246165" to="-16813289#2" departLane="best" type="truck_truck"/>
    <trip id="truck129" depart="24.83" from="25401307#3" to="-1025593426#4" departLane="best" type="truck_truck"/>
    <trip id="truck130" depart="25.03" from="-258585134#5" to="1320232908" departLane="best" type="truck_truck"/>
    <trip id="truck131" depart="25.22" from="-710817976#1" to="49071407#0" departLane="best" type="truck_truck"/>
    <trip id="truck132" depart="25.41" from="509354019#0" to="172538014#5" departLane="best" type="truck_truck"/>
    <trip id="truck133" depart="25.60" from="25097135#1" to="-445083866#0" departLane="best" type="truck_truck"/>
    <trip id="truck134" depart="25.80" from="25115501#16" to="-172472687" departLane="best" type="truck_truck"/>
    <trip id="truck135" depart="25.99" from="-25473705#1" to="324540756#2" departLane="best" type="truck_truck" departSpeed="max"/>
    <trip id="truck136" depart="26.18" from="1225355084" to="172450421#4" departLane="best" type="truck_truck" departSpeed="max"/>
    <trip id="truck137" depart="26.37" from="31780246#0" to="25401379" departLane="best" type="truck_truck" departSpeed="max"/>
    <trip id="truck138" depart="26.57" from="-25401279#0" to="152816693" departLane="best" type="truck_truck"/>
    <trip id="truck139" depart="26.76" from="359889065#1" to="-418010635#1" departLane="best" type="truck_truck"/>
    <trip id="truck140" depart="26.95" from="63523064" to="-25401169#0" departLane="best" type="truck_truck"/>
    <trip id="truck141" depart="27.15" from="-63523063#1" to="-25401017" departLane="best" type="truck_truck" departSpeed="max"/>
    <trip id="truck142" depart="27.34" from="-305708162" to="-25473952#0" departLane="best" type="truck_truck"/>
    <trip id="truck143" depart="27.53" from="25266061#2" to="263307341" departLane="best" type="truck_truck"/>
    <trip id="truck144" depart="27.72" from="366207746#2" to="-25097110#0" departLane="best" type="truck_truck"/>
    <trip id="truck145" depart="27.92" from="85547297" to="25508805#2" departLane="best" type="truck_truck"/>
    <trip id="truck146" depart="28.11" from="-286637226#1" to="25474350" departLane="best" type="truck_truck" departSpeed="max"/>
    <trip id="truck147" depart="28.30" from="25097125#1" to="-418199411" departLane="best" type="truck_truck"/>
    <trip id="truck148" depart="28.49" from="-299595011" to="-194381740#0" departLane="best" type="truck_truck"/>
    <trip id="truck149" depart="28.69" from="-25534010#11" to="363399203" departLane="best" type="truck_truck" departSpeed="max"/>
    <trip id="truck150" depart="28.88" from="-439072434" to="25401382" departLane="best" type="truck_truck"/>
    <trip id="truck151" depart="29.07" from="1198133877" to="-25519400#1" departLane="best" type="truck_truck"/>
    <trip id="truck152" depart="29.26" from="1137261349#3" to="-25474382#2" departLane="best" type="truck_truck"/>
    <trip id="truck153" depart="29.46" from="108853039#4" to="-25401148#4" departLane="best" type="truck_truck"/>
    <trip id="truck154" depart="29.65" from="-25114797#1" to="31430396#2" departLane="best" type="truck_truck"/>
    <trip id="truck155" depart="29.84" from="-323498416" to="25508586" departLane="best" type="truck_truck" departSpeed="max"/>
    <trip id="truck156" depart="30.03" from="483477827#4" to="440619829#4" departLane="best" type="truck_truck"/>
    <trip id="truck157" depart="30.23" from="31822614#1" to="172460165#1" departLane="best" type="truck_truck"/>
    <trip id="truck158" depart="30.42" from="172535132#1" to="-1198085730" departLane="best" type="truck_truck"/>
    <trip id="truck159" depart="30.61" from="25399395#1" to="17413173#2" departLane="best" type="truck_truck"/>
    <trip id="truck160" depart="30.80" from="-366207714#2" to="363241640" departLane="best" type="truck_truck"/>
    <trip id="truck161" depart="31.00" from="258585126#0" to="31138266#0" departLane="best" type="truck_truck"/>
    <trip id="truck162" depart="31.19" from="-366207709#3" to="194381734#1" departLane="best" type="truck_truck"/>
    <trip id="truck163" depart="31.38" from="263159117#0" to="418167130#0" departLane="best" type="truck_truck"/>
    <trip id="truck164" depart="31.57" from="16181738#1" to="258585121" departLane="best" type="truck_truck"/>
    <trip id="truck165" depart="31.77" from="218402976" to="-25474510" departLane="best" type="truck_truck" departSpeed="max"/>
    <trip id="truck166" depart="31.96" from="-25401315#2" to="25112798#1" departLane="best" type="truck_truck" departSpeed="max"/>
    <trip id="truck167" depart="32.15" from="360609468" to="-25115488#1" departLane="best" type="truck_truck"/>
    <trip id="truck168" depart="32.34" from="-25400992#0" to="25373538#2" departLane="best" type="truck_truck"/>
    <trip id="truck169" depart="32.54" from="-25146683#1" to="298496222#1" departLane="best" type="truck_truck" departSpeed="max"/>
    <trip id="truck170" depart="32.73" from="25094074#0" to="17150142" departLane="best" type="truck_truck"/>
    <trip id="truck171" depart="32.92" from="1201464010#0" to="698899190#10" departLane="best" type="truck_truck"/>
    <trip id="truck172" depart="33.11" from="-318881020" to="25094071#1" departLane="best" type="truck_truck" departSpeed="max"/>
    <trip id="truck173" depart="33.31" from="1140818046#2" to="653983878#0" departLane="best" type="truck_truck"/>
    <trip id="truck174" depart="33.50" from="-483477831#1" to="-108852986" departLane="best" type="truck_truck" departSpeed="max"/>
    <trip id="truck175" depart="33.69" from="1197116802" to="222393008#0" departLane="best" type="truck_truck"/>
    <trip id="truck176" depart="33.88" from="258576123#0" to="25400963#6" departLane="best" type="truck_truck" departSpeed="max"/>
    <trip id="truck177" depart="34.08" from="383412113" to="-25534170#1" departLane="best" type="truck_truck"/>
    <trip id="truck178" depart="34.27" from="25114566" to="342606619#1" departLane="best" type="truck_truck"/>
    <trip id="truck179" depart="34.46" from="383428078#0" to="31780224" departLane="best" type="truck_truck"/>
    <trip id="truck180" depart="34.65" from="25342844#0" to="1179658032#2" departLane="best" type="truck_truck"/>
    <trip id="truck181" depart="34.85" from="472842696#1" to="263101461" departLane="best" type="truck_truck"/>
    <trip id="truck182" depart="35.04" from="1137261351#1" to="557144735#2" departLane="best" type="truck_truck"/>
    <trip id="truck183" depart="35.23" from="63523004#4" to="59677109#2" departLane="best" type="truck_truck"/>
    <trip id="truck184" depart="35.42" from="-84636487#3" to="1025593426#3" departLane="best" type="truck_truck"/>
    <trip id="truck185" depart="35.62" from="70191681#1" to="-1341689291" departLane="best" type="truck_truck"/>
    <trip id="truck186" depart="35.81" from="628932921#3" to="324540756#5" departLane="best" type="truck_truck"/>
    <trip id="truck187" depart="36.00" from="-25473756#1" to="25373470#5" departLane="best" type="truck_truck"/>
    <trip id="truck188" depart="36.19" from="-483477827#9" to="263158399#6" departLane="best" type="truck_truck" departSpeed="max"/>
    <trip id="truck189" depart="36.39" from="446750279" to="26428113#5" departLane="best" type="truck_truck"/>
    <trip id="truck190" depart="36.58" from="319181218" to="-298492231#0" departLane="best" type="truck_truck" departSpeed="max"/>
    <trip id="truck191" depart="36.77" from="172376525" to="16158888" departLane="best" type="truck_truck"/>
    <trip id="truck192" depart="36.96" from="557144735#0" to="-25473762" departLane="best" type="truck_truck"/>
    <trip id="truck193" depart="37.16" from="25474521#5" to="25508482#5" departLane="best" type="truck_truck"/>
    <trip id="truck194" depart="37.35" from="-388535324#1" to="509354019#2" departLane="best" type="truck_truck"/>
    <trip id="truck195" depart="37.54" from="415556265#0" to="-258586048#2" departLane="best" type="truck_truck" departSpeed="max"/>
    <trip id="truck196" depart="37.73" from="-25115477#10" to="-298981555#0" departLane="best" type="truck_truck"/>
    <trip id="truck197" depart="37.93" from="16814426#0" to="-206524640" departLane="best" type="truck_truck"/>
    <trip id="truck198" depart="38.12" from="318883604" to="222367943#8" departLane="best" type="truck_truck" departSpeed="max"/>
    <trip id="truck199" depart="38.31" from="25316179#11" to="-25534106#4" departLane="best" type="truck_truck"/>
    <trip id="truck200" depart="38.50" from="25401139#1" to="-372586346#1" departLane="best" type="truck_truck"/>
    <trip id="truck201" depart="38.70" from="717554936#7" to="-172538017" departLane="best" type="truck_truck"/>
    <trip id="truck202" depart="38.89" from="-25115501#10" to="-25094061#2" departLane="best" type="truck_truck"/>
    <trip id="truck203" depart="39.08" from="259615501#0" to="222823973" departLane="best" type="truck_truck"/>
    <trip id="truck204" depart="39.27" from="25439739#1" to="-25316188#1" departLane="best" type="truck_truck"/>
    <trip id="truck205" depart="39.47" from="25115492#1" to="299887271#1" departLane="best" type="truck_truck"/>
    <trip id="truck206" depart="39.66" from="-220794355" to="-25342837#1" departLane="best" type="truck_truck"/>
    <trip id="truck207" depart="39.85" from="1227248475" to="-362886525#5" departLane="best" type="truck_truck"/>
    <trip id="truck208" depart="40.04" from="324540756#1" to="24630800#1" departLane="best" type="truck_truck"/>
    <trip id="truck209" depart="40.24" from="135050788#6" to="-683392440#1" departLane="best" type="truck_truck"/>
    <trip id="truck210" depart="40.43" from="-25401134#0" to="-25373494#1" departLane="best" type="truck_truck"/>
    <trip id="truck211" depart="40.62" from="-298985986#2" to="-117849331#2" departLane="best" type="truck_truck"/>
    <trip id="truck212" depart="40.81" from="-25400992#1" to="25114555#3" departLane="best" type="truck_truck" departSpeed="max"/>
    <trip id="truck213" depart="41.01" from="172450757#1" to="172460165#1" departLane="best" type="truck_truck"/>
    <trip id="truck214" depart="41.20" from="194381764#0" to="25111168#1" departLane="best" type="truck_truck"/>
    <trip id="truck215" depart="41.39" from="985287464" to="204140821#3" departLane="best" type="truck_truck" departSpeed="max"/>
    <trip id="truck216" depart="41.58" from="260819064" to="-31744338" departLane="best" type="truck_truck" departSpeed="max"/>
    <trip id="truck217" depart="41.78" from="304597414#0" to="221226632" departLane="best" type="truck_truck"/>
    <trip id="truck218" depart="41.97" from="360610209#2" to="652322208#0" departLane="best" type="truck_truck"/>
    <trip id="truck219" depart="42.16" from="-25474290" to="402414166" departLane="best" type="truck_truck"/>
    <trip id="truck220" depart="42.35" from="-172376524" to="355833264" departLane="best" type="truck_truck" departSpeed="max"/>
    <trip id="truck221" depart="42.55" from="258429985" to="363244240#1" departLane="best" type="truck_truck" departSpeed="max"/>
    <trip id="truck222" depart="42.74" from="25215029#5" to="-418453715" departLane="best" type="truck_truck"/>
    <trip id="truck223" depart="42.93" from="194755967#1" to="342629482#0" departLane="best" type="truck_truck"/>
    <trip id="truck224" depart="43.12" from="-47138128#2" to="80309577" departLane="best" type="truck_truck" departSpeed="max"/>
    <trip id="truck225" depart="43.32" from="389736725#0" to="260799340#3" departLane="best" type="truck_truck"/>
    <trip id="truck226" depart="43.51" from="358285758#0" to="-1198064699" departLane="best" type="truck_truck"/>
    <trip id="truck227" depart="43.70" from="25112802#1" to="418167127#1" departLane="best" type="truck_truck"/>
    <trip id="truck228" depart="43.89" from="-366207709#3" to="25146687#2" departLane="best" type="truck_truck"/>
    <trip id="truck229" depart="44.09" from="-222541162#1" to="298488305#12" departLane="best" type="truck_truck" departSpeed="max"/>
    <trip id="truck230" depart="44.28" from="-25534136#2" to="717554936#9" departLane="best" type="truck_truck"/>
    <trip id="truck231" depart="44.47" from="25094825#3" to="-172459467#0" departLane="best" type="truck_truck"/>
    <trip id="truck232" depart="44.66" from="187819360" to="-222823987" departLane="best" type="truck_truck" departSpeed="max"/>
    <trip id="truck233" depart="44.86" from="-355833264" to="25473928#1" departLane="best" type="truck_truck" departSpeed="max"/>
    <trip id="truck234" depart="45.05" from="-220262063" to="342401467" departLane="best" type="truck_truck"/>
    <trip id="truck235" depart="45.24" from="25401315#0" to="25474382#1" departLane="best" type="truck_truck"/>
    <trip id="truck236" depart="45.43" from="-353331013#1" to="-220260874#1" departLane="best" type="truck_truck"/>
    <trip id="truck237" depart="45.63" from="186160660" to="25473921#2" departLane="best" type="truck_truck" departSpeed="max"/>
    <trip id="truck238" depart="45.82" from="59677270" to="25440654#2" departLane="best" type="truck_truck"/>
    <trip id="truck239" depart="46.01" from="-258343331#2" to="221252049#1" departLane="best" type="truck_truck"/>
    <trip id="truck240" depart="46.20" from="509354019#4" to="226092038" departLane="best" type="truck_truck"/>
    <trip id="truck241" depart="46.40" from="-172450750" to="25373529" departLane="best" type="truck_truck" departSpeed="max"/>
    <trip id="truck242" depart="46.59" from="360068386#13" to="172376523" departLane="best" type="truck_truck"/>
    <trip id="truck243" depart="46.78" from="25401250#0" to="-25115496" departLane="best" type="truck_truck"/>
    <trip id="truck244" depart="46.97" from="25373520" to="221232880#2" departLane="best" type="truck_truck"/>