<?xml version="1.0" encoding="UTF-8"?>

<!-- generated on 2026-02-15 18:22:24.704502 by Eclipse SUMO osmWebWizard.py v1_26_0+0000-fa7df22d7f1
<configuration>
    <net-file value="C:\Users\sebas\2026-02-15-18-21-36\osm.net.xml.gz"/>
    <ptlines-file value="C:\Users\sebas\2026-02-15-18-21-36\osm_ptlines.xml"/>
    <ptstops-file value="C:\Users\sebas\2026-02-15-18-21-36\osm_stops.add.xml"/>
    <output-file value="C:\Users\sebas\2026-02-15-18-21-36\osm_pt.rou.xml"/>
    <stopinfos-file value="C:\Users\sebas\2026-02-15-18-21-36\stopinfos.xml"/>
    <routes-file value="C:\Users\sebas\2026-02-15-18-21-36\vehroutes.xml"/>
    <trips-file value="C:\Users\sebas\2026-02-15-18-21-36\trips.trips.xml"/>
    <min-stops value="0"/>
    <extend-to-fringe value="True"/>
    <random-begin value="True"/>
    <seed value="42"/>
    <ignore-errors value="True"/>
    <vtype-prefix value="pt_"/>
    <verbose value="True"/>
</configuration>
-->

<routes xmlns:xsi="http://www.w3.org/2001/XMLSchema-instance" xsi:noNamespaceSchemaLocation="http://sumo.dlr.de/xsd/routes_file.xsd">
    <vType id="pt_bus" vClass="bus"/>
    <vType id="pt_tram" vClass="tram"/>
    <vType id="pt_train" vClass="rail"/>
    <vType id="pt_subway" vClass="subway"/>
    <vType id="pt_light_rail" vClass="rail_urban"/>
    <vType id="pt_monorail" vClass="rail_urban"/>
    <vType id="pt_trolleybus" vClass="bus"/>
    <vType id="pt_minibus" vClass="bus"/>
    <vType id="pt_share_taxi" vClass="taxi"/>
    <vType id="pt_aerialway" vClass="cable_car" length="2.5" width="2" personCapacity="4"/>
    <vType id="pt_ferry" vClass="ship"/>
    <route id="pt_bus_06:0" edges="366059389#3 366059389#8 355834340 657749010 655417352#0 655417352#1 657749174#0 657749174#1 657749174#4 657749174#8 135050788#0 135050788#1" >
        <stop busStop="5501954525" duration="20" until="44.0"/> <!-- Bus Barrio Luján -->
        <stop busStop="5501955422" duration="20" until="196.0"/> <!-- Luján - San José -->
    </route>
    <route id="pt_bus_142:0" edges="1196913410 597539557#0 572220179 718058090 24855888#0 24855888#2 24855888#6 24855888#7 378465769 769463984 1377927175#1 1377927175#2 1377927172 769463983 1362747245 1200831591#1 1200831591#2 1362747242#0 1362747242#1 -1451247474 25064160#0 -25064160#3 25064160#0 25064160#4 59677117 64882214 1200847304 64882219#0 -457083634 -222641616 -222641615#2 -298981125#1 -298981125#0 -1197108947#1 -1197108947#0 -1200845480 298981124 388500922#0 380133292 1227248480 657749008 1227248475 310175370#0 718050628 366059396 260838959#0 25112798#0 25112798#1 698899190#13 698899190#16 698899190#17 698899190#18 698899190#19 698899190#20 698899190#23 698899190#27 698899190#28 260831609 260831616#0 298981125#0 298981125#1" >
        <stop busStop="1833745692" duration="20" until="40.0"/> <!-- Avenida Central de Guadalupe -->
        <stop busStop="4098834270" duration="20" until="121.0"/> <!-- Parada Municipalidad de Goicoechea 1 -->
        <stop busStop="-4098870372" duration="20" until="321.0"/> <!-- Parada CCG -->
        <stop busStop="2698004040" duration="20" until="527.0"/> <!-- Parada Parque Nacional -->
        <stop busStop="4098870366" duration="20" until="590.0"/> <!-- Parada Parque España -->
        <stop busStop="4098870368" duration="20" until="695.0"/> <!-- Parada Hospital Calderón Guardia -->
        <stop busStop="4098870369" duration="20" until="774.0"/> <!-- Parada Antigua Aduana -->
    </route>
    <route id="pt_bus_200:0" edges="389754237 389754235 220776221 913208199#0 675061412 655655658#0-AddedOnRampEdge 655655658#0 17154953#0 17154953#1 17154953#2 1338790836#0 298981555#0 298981555#1 298981555#2 -717755314 1196643901 717755313 1196643900 1196643899#0 423270143#0 423270142#0 423270142#1 25758143 298978968#1 549800869 16158954 25548649#0 549832822" >
        <stop busStop="5311344479" duration="20" until="304.0"/> <!-- San José -->
    </route>
    <route id="pt_bus_203:0" edges="389754237 389754235 220776221 913208199#0 675061412 655655658#0-AddedOnRampEdge 655655658#0 17154953#0 17154953#1 17154953#2 1338790836#0 298981555#0 298981555#1 298981555#2 -717755314 1196643901 717755313 1196643900 1196643899#0 423270143#0 423270142#0 423270142#1 25758143 298978968#1 549800866#0 549800866#1 82877651 -549800868" >
        <stop busStop="5310867777" duration="20" until="68.0"/> <!-- Corobicí - General Cañas -->
        <stop busStop="3655894875" duration="20" until="200.0"/> <!-- Registro Nacional Oeste - Paseo Colón -->
        <stop busStop="5310867776" duration="20" until="294.0"/> <!-- Hospital de Niños - Paseo Colón -->
        <stop busStop="-4100624695" duration="20" until="389.0"/> <!-- San José -->
        <stop busStop="-5310867778" duration="20" until="420.0"/> <!-- Terminal Atenas -->
    </route>
    <route id="pt_bus_203:1" edges="549800868 549800867 1344685758 30721346#0 16158888 1344685747 1344685746#0 789694947#0 -25758143 -423270142#2 -423270142#0 -423270143#1 -1196643899#2 -1196643900 -717755313 -1196643901 717755314 -298981555#2 -298981555#1 -298981555#0 1338790835 298982137#0 1198720479 298492231#0 298492231#1 298492231#2 31743949#2 31743949#3 -258242592#1 -319182466#1 1248302328" >
        <stop busStop="4100624695" duration="20" until="31.0"/> <!-- San José -->
        <stop busStop="5310867778" duration="20" until="62.0"/> <!-- Terminal Atenas -->
        <stop busStop="5310867775" duration="20" until="284.0"/> <!-- Centro Nacional Rehabilitación -->
    </route>
    <route id="pt_bus_L4:0" edges="222665295#1" >
        <stop busStop="4092185441" duration="20" until="41.0"/> <!-- Parada bus Periférica L4 -->
    </route>
    <route id="pt_bus_R09:0" edges="313416568 313416568-AddedOffRampEdge 653718470 301771702 25094079 1344679503#0 1344679503#1" >
        <stop busStop="6812665584" duration="20" until="104.0"/> <!-- Paradas Escazú-San José -->
    </route>
    <route id="pt_bus_R09:1" edges="549800867 1344685758 30721346#0 16158888 1344685747 1344685746#0 789694947#0 -25758143 -423270142#2 -423270142#0 -423270143#1 -1196643899#2 -1196643900 -717755313 -1196643901 717755314 -298981555#2 298981555#2 31430391#0 31430391#1 1344685755#0 1344685755#1 1344685755#2 655657657 220669507#0 301771705 313416572" >
        <stop busStop="10857092910" duration="20" until="31.0"/> <!-- Terminal Santa Ana -->
        <stop busStop="6812679486" duration="20" until="287.0"/> <!-- Paradas San José-Escazu -->
        <stop busStop="12452606525" duration="20" until="370.0"/> <!-- Gimnasio Nacional -->
    </route>
    <route id="pt_bus_Ruta_08_San_José_-_Ruta_Periférica:0" edges="179736579#0 296151731#0 1221406798#1 1221406798#3 1221406798#4 222542360#0 222542360#1 453890009#2 198218478" >
        <stop busStop="3950755435" duration="20" until="34.0"/> <!-- Parada de bus San José - Barrio Escalante y Carmiol - San Pedro - San José -->
        <stop busStop="3950802957" duration="20" until="105.0"/> <!-- Parque John F. Kennedy -->
    </route>
    <route id="pt_bus_Ruta_9_Santa_Ana_-_San_José:0" edges="313416568 313416568-AddedOffRampEdge 653718470 301771702 25094079 1344679503#0 1344679503#1 13774544#1 31430401#1 1344685755#1 1344685755#2 655657657 220669507#0 1038938828 1344679503#0 1344679503#1 13774626#8 388559875#1 59677270 1038938825#0 1038938825#4 1038938825#5 17150865#0 13774544#6 1038938826#0 17150959#2 17150959#3 17150959#4 1196643899#0 423270143#0" >
        <stop busStop="6812665584" duration="20" until="130.0"/> <!-- Paradas Escazú-San José -->
        <stop busStop="12453512212" duration="20" until="290.0"/> <!-- Sarmiento -->
        <stop busStop="12453512211" duration="20" until="398.0"/> <!-- Park Inn -->
        <stop busStop="12453512209" duration="20" until="510.0"/> <!-- Torre Mercedes -->
    </route>
    <route id="pt_train_1:0" edges="25841648#0 25841648#1 25841648#2 25841648#3 446753979#0 446753979#1 446753979#2 446753979#3 446753979#4 446753979#5 446753979#6 446753979#8 446753979#9 446753979#10 446753979#11 446753979#12 446753979#13 446753979#14 446753979#15" >
        <stop busStop="289555266" duration="20" until="87.0"/> <!-- La Salle -->
        <stop busStop="278449879" duration="20" until="212.0"/> <!-- Contraloría -->
        <stop busStop="4636012381" duration="20" until="355.0"/> <!-- Cuba -->
        <stop busStop="4636012380" duration="20" until="634.0"/> <!-- Pacífico -->
    </route>
    <route id="pt_train_1:1" edges="-446753979#15 -446753979#14 -446753979#13 -446753979#12 -446753979#11 -446753979#10 -446753979#9 -446753979#8 -446753979#7 -446753979#5 -446753979#4 -446753979#3 -446753979#2 -446753979#1 -446753979#0 -25841648#3 -25841648#2 -25841648#1 -25841648#0" >
        <stop busStop="-4636012380" duration="20" until="55.0"/> <!-- Pacífico -->
        <stop busStop="-4636012381" duration="20" until="373.0"/> <!-- Cuba -->
        <stop busStop="-278449879" duration="20" until="516.0"/> <!-- Contraloría -->
        <stop busStop="-289555266" duration="20" until="641.0"/> <!-- La Salle -->
    </route>
    <route id="pt_train_1:2" edges="25841648#0 25841648#1 25841648#2 25841648#3 446753979#0 446753979#1 446753979#2 446753979#3 446753979#4 446753979#5 446753979#6 446753979#8 446753979#9 446753979#10 446753979#11 446753979#12 446753979#13 446753979#14 446753979#15 440793505#0 440793505#1 440793505#2 440793505#3 440793505#4 440793505#5 440793505#7 440793505#8 440793505#9 440793505#10 440793505#10 298488302#0 298488302#1 298488302#2 298488302#3 298488302#4 298488302#5 298488302#6 298488302#7 298488302#8 298488302#9 -440619830#8 -440619830#7 -440619830#6 -440619830#5 -440619830#4 -440619830#3 -440619830#2 -440619830#1 -440619830#0 26428318#0 26428318#1 1038934246#0 1038934246#1 1038934246#2 1038934246#3 1038934246#3" >
        <stop busStop="289555266" duration="20" until="87.0"/> <!-- La Salle -->
        <stop busStop="278449879" duration="20" until="212.0"/> <!-- Contraloría -->
        <stop busStop="4636012381" duration="20" until="355.0"/> <!-- Cuba -->
        <stop busStop="4636012380" duration="20" until="583.0"/> <!-- Pacífico -->
        <stop busStop="4636012379" duration="20" until="703.0" jump="3.5078113793663683"/> <!-- Plaza Cleto González Víquez -->
        <stop busStop="4628999924@6559533" duration="20" until="854.5078113793663"/> <!-- Atlántico -->
        <stop busStop="4628999925" duration="20" until="885.5078113793663" jump="1.99489523699999"/> <!-- Estación Atlántico -->
    </route>
    <route id="pt_train_1:3" edges="452573164#0 452573164#1 452573164#2 452573164#3 452573164#4 452573164#6 452573164#8 452573164#9 25342835#1 25342835#2 1207582823 26428318#0 26428318#1 1038934246#0 1038934246#1 1038934246#2 1038934246#3 1038934246#3 468564875#0 468564875#1 468564875#2 468564875#3 31422046#1 31422046#2 31422046#3 25544852#1 716772051#1 716772051#2 -227891840#2 -227891840#1 -227891840#0 -25549799#2 -25549799#1 -25549799#0 25549799#0 25549799#1 25549799#2 25549799#3 227891840#1 227891840#2 227891840#3 -716772051#1 -716772051#0 -25544852#0 -31422046#2 -31422046#1 -31422046#0 -468564875#2 -468564875#1 -468564875#0 -1038934246#3 -1038934246#2 -1038934246#1 -1038934246#0 -26428318#1 -26428318#0 440619830#0 440619830#1 440619830#2 440619830#3 440619830#4 440619830#5 440619830#6 440619830#7 440619830#8 1038934239#0 -298488302#8 -298488302#7 -298488302#6 -298488302#5 -298488302#4 -298488302#3 -298488302#2 -298488302#1 -298488302#0 -440793505#10 -440793505#9 -440793505#8 -440793505#7 -440793505#6 -440793505#4 -440793505#3 -440793505#2 1122686612#0 1122686612#1 1122686612#2 1122686611#1 440793505#1 440793505#2 440793505#3 440793505#4 440793505#5 440793505#7 440793505#8 440793505#9 440793505#10 298488302#0 298488302#1 298488302#2 298488302#3 298488302#4 298488302#5 298488302#6 298488302#7 298488302#8 298488302#9 -440619830#8 -440619830#7 -440619830#6 -440619830#5 -440619830#4 -440619830#3 -440619830#2 -440619830#1 -440619830#0 26428318#0 26428318#1 1038934246#0 1038934246#1 1038934246#2 1038934246#3 468564875#0 468564875#1 468564875#2 468564875#3 31422046#1 31422046#2 31422046#3 25544852#1 716772051#1 716772051#2 -227891840#2 -227891840#1 -227891840#0 -25549799#2 -25549799#1 -25549799#0 25549799#0 25549799#1 25549799#2 25549799#3 227891840#1 227891840#2 227891840#3 -716772051#1 -716772051#0 -25544852#0 -31422046#2 -31422046#1 -31422046#0 -468564875#2 -468564875#1 -468564875#0 -1038934246#3 -1038934246#2 -1038934246#1 -1038934246#0 -26428318#1 -26428318#0 440619830#0 440619830#1 440619830#2 440619830#3 440619830#4 440619830#5 440619830#6 440619830#7 440619830#8 1038934239#0 -298488302#8 -298488302#7 -298488302#6 -298488302#5 -298488302#4 -298488302#3 -298488302#2 -298488302#1 -298488302#0 -440793505#10 -440793505#9 -440793505#8 -440793505#7 -440793505#6 -440793505#4 -440793505#3 -440793505#2 -440793505#1 -440793505#0 -446753979#15 -446753979#14 -446753979#13 -446753979#12 -446753979#11 -446753979#10 -446753979#9 -446753979#8 -446753979#7 -446753979#5 -446753979#4 -446753979#3 -446753979#2 -446753979#1 -446753979#0 -25841648#3 -25841648#2 -25841648#1 -25841648#0" >
        <stop busStop="4628999924@6559533" duration="20" until="183.0" jump="1.99489523699999"/> <!-- Atlántico -->
        <stop busStop="-4636012378" duration="20" until="1445.994895237"/> <!-- La Corte -->
        <stop busStop="-4636012379" duration="20" until="1562.994895237"/> <!-- Plaza Cleto González Víquez -->
        <stop busStop="10719766598" duration="20" until="1805.994895237"/> <!-- None -->
        <stop busStop="-4636012380@7357187" duration="20" until="2387.994895237"/> <!-- Pacífico -->
        <stop busStop="-4636012381" duration="20" until="2536.994895237"/> <!-- Cuba -->
        <stop busStop="-278449879" duration="20" until="2679.994895237"/> <!-- Contraloría -->
        <stop busStop="-289555266" duration="20" until="2804.994895237"/> <!-- La Salle -->
    </route>
    <route id="pt_train_1:4" edges="25841648#0 25841648#1 25841648#2 25841648#3 446753979#0 446753979#1 446753979#2 446753979#3 446753979#4 446753979#5 446753979#6 446753979#8 446753979#9 446753979#10 446753979#11 446753979#12 446753979#13 446753979#14 446753979#15" >
        <stop busStop="289555266" duration="20" until="87.0"/> <!-- La Salle -->
        <stop busStop="278449879" duration="20" until="212.0"/> <!-- Contraloría -->
        <stop busStop="4636012381" duration="20" until="355.0"/> <!-- Cuba -->
        <stop busStop="4636012380" duration="20" until="547.0"/> <!-- Pacífico -->
    </route>
    <route id="pt_train_1:5" edges="-446753979#15 -446753979#14 -446753979#13 -446753979#12 -446753979#11 -446753979#10 -446753979#9 -446753979#8 -446753979#7 -446753979#5 -446753979#4 -446753979#3 -446753979#2 -446753979#1 -446753979#0 -25841648#3 -25841648#2 -25841648#1 -25841648#0" >
        <stop busStop="-4636012380" duration="20" until="55.0"/> <!-- Pacífico -->
        <stop busStop="-4636012381" duration="20" until="407.0"/> <!-- Cuba -->
        <stop busStop="-278449879" duration="20" until="550.0"/> <!-- Contraloría -->
        <stop busStop="-289555266" duration="20" until="675.0"/> <!-- La Salle -->
    </route>
    <route id="pt_train_1:6" edges="1038934246#3 1038934246#3 468564875#0 468564875#1 468564875#2 468564875#3 31422046#1 31422046#2 31422046#3 25544852#1 716772051#1 716772051#2 -227891840#2 -227891840#1 -227891840#0 -25549799#2 -25549799#1 -25549799#0 25549799#0 25549799#1 25549799#2 25549799#3 227891840#1 227891840#2 227891840#3 -716772051#1 -716772051#0 -25544852#0 -31422046#2 -31422046#1 -31422046#0 -468564875#2 -468564875#1 -468564875#0 -1038934246#3 -1038934246#2 -1038934246#1 -1038934246#0 -26428318#1 -26428318#0 440619830#0 440619830#1 440619830#2 440619830#3 440619830#4 440619830#5 440619830#6 440619830#7 440619830#8 1038934239#0 -298488302#8 -298488302#7 -298488302#6 -298488302#5 -298488302#4 -298488302#3 -298488302#2 -298488302#1 -298488302#0 -440793505#10 -440793505#9 -440793505#8 -440793505#7 -440793505#6 -440793505#4 -440793505#3 -440793505#2 1122686612#0 1122686612#1 1122686612#2 1122686611#1 440793505#1 440793505#2 440793505#3 440793505#4 440793505#5 440793505#7 440793505#8 440793505#9 440793505#10 298488302#0 298488302#1 298488302#2 298488302#3 298488302#4 298488302#5 298488302#6 298488302#7 298488302#8 298488302#9 -440619830#8 -440619830#7 -440619830#6 -440619830#5 -440619830#4 -440619830#3 -440619830#2 -440619830#1 -440619830#0 26428318#0 26428318#1 1038934246#0 1038934246#1 1038934246#2 1038934246#3 468564875#0 468564875#1 468564875#2 468564875#3 31422046#1 31422046#2 31422046#3 25544852#1 716772051#1 716772051#2 -227891840#2 -227891840#1 -227891840#0 -25549799#2 -25549799#1 -25549799#0 25549799#0 25549799#1 25549799#2 25549799#3 227891840#1 227891840#2 227891840#3 -716772051#1 -716772051#0 -25544852#0 -31422046#2 -31422046#1 -31422046#0 -468564875#2 -468564875#1 -468564875#0 -1038934246#3 -1038934246#2 -1038934246#1 -1038934246#0 -26428318#1 -26428318#0 440619830#0 440619830#1 440619830#2 440619830#3 440619830#4 440619830#5 440619830#6 440619830#7 440619830#8 1038934239#0 -298488302#8 -298488302#7 -298488302#6 -298488302#5 -298488302#4 -298488302#3 -298488302#2 -298488302#1 -298488302#0 -440793505#10 -440793505#9 -440793505#8 -440793505#7 -440793505#6 -440793505#4 -440793505#3 -440793505#2 -440793505#1 -440793505#0 -446753979#15 -446753979#14 -446753979#13 -446753979#12 -446753979#11 -446753979#10 -446753979#9 -446753979#8 -446753979#7 -446753979#5 -446753979#4 -446753979#3 -446753979#2 -446753979#1 -446753979#0 -25841648#3 -25841648#2 -25841648#1 -25841648#0" >
        <stop busStop="4628999924@6559533" duration="20" until="31.0" jump="1.99489523699999"/> <!-- Atlántico -->
    </route>
    <route id="pt_train_1:7" edges="452573164#0 452573164#1 452573164#2 452573164#3 452573164#4 452573164#6 452573164#8 452573164#9 25342835#1 25342835#2 1207582823 26428318#0 26428318#1 1038934246#0 1038934246#1 1038934246#2 1038934246#3 1038934246#3" >
        <stop busStop="4628999924@6559533" duration="20" until="183.0"/> <!-- Atlántico -->
        <stop busStop="4628999925" duration="20" until="214.0" jump="1.99489523699999"/> <!-- Estación Atlántico -->
    </route>
    <route id="pt_train_2:0" edges="468564875#0 468564875#1 468564875#2 468564875#3 31422046#1 31422046#2 31422046#3 25544852#1 716772051#1 716772051#2 -227891840#2 -227891840#1 -227891840#0 -25549799#2 -25549799#1 -25549799#0" >
        <stop busStop="4628999924" duration="20" until="31.0"/> <!-- Atlántico -->
        <stop busStop="5824465670" duration="20" until="187.0"/> <!-- Calle Blancos -->
        <stop busStop="-4629001928" duration="20" until="353.0"/> <!-- Colima -->
    </route>
    <route id="pt_train_2:1" edges="25549799#0 25549799#1 25549799#2 25549799#3 227891840#1 227891840#2 227891840#3 -716772051#1 -716772051#0 -25544852#0 -31422046#2 -31422046#1 -31422046#0 -468564875#2 -468564875#1 -468564875#0 -1038934246#3 -1038934246#2 -1038934246#1 -1038934246#0 -26428318#1 -26428318#0 -1207582823 -491698189 -25342835#1 -25342835#0 -452573164#8 -452573164#7 -452573164#5 -452573164#3 -452573164#2 -452573164#1 -452573164#0" >
        <stop busStop="4629001928" duration="20" until="122.0"/> <!-- Colima -->
        <stop busStop="-5824465670" duration="20" until="288.0"/> <!-- Calle Blancos -->
        <stop busStop="-4628999924" duration="20" until="441.0"/> <!-- Atlántico -->
    </route>
    <route id="pt_train_2:2" edges="452573164#0 452573164#1 452573164#2 452573164#3 452573164#4 452573164#6 452573164#8 452573164#9 25342835#1 25342835#2 1207582823 26428318#0 26428318#1 1038934246#0 1038934246#1 1038934246#2 1038934246#3 468564875#0 468564875#1 468564875#2 468564875#3 31422046#1 31422046#2 31422046#3 25544852#1 716772051#1 716772051#2 -227891840#2 -227891840#1 -227891840#0 -25549799#2 -25549799#1 -25549799#0" >
        <stop busStop="4628999924@6559533" duration="20" until="183.0"/> <!-- Atlántico -->
        <stop busStop="5824465670" duration="20" until="343.0"/> <!-- Calle Blancos -->
        <stop busStop="-4629001928" duration="20" until="509.0"/> <!-- Colima -->
    </route>
    <route id="pt_train_2:3" edges="25549799#0 25549799#1 25549799#2 25549799#3 227891840#1 227891840#2 227891840#3 -716772051#1 -716772051#0 -25544852#0 -31422046#2 -31422046#1 -31422046#0 -468564875#2 -468564875#1 -468564875#0" >
        <stop busStop="4629001928" duration="20" until="122.0"/> <!-- Colima -->
        <stop busStop="-5824465670" duration="20" until="288.0"/> <!-- Calle Blancos -->
        <stop busStop="-4628999924" duration="20" until="441.0"/> <!-- Atlántico -->
    </route>
    <route id="pt_train_2:4" edges="468564875#0 468564875#1 468564875#2 468564875#3 31422046#1 31422046#2 31422046#3 25544852#1 716772051#1 716772051#2 -227891840#2 -227891840#1 -227891840#0 -25549799#2 -25549799#1 -25549799#0" >
        <stop busStop="4628999924" duration="20" until="31.0"/> <!-- Atlántico -->
        <stop busStop="5824465670" duration="20" until="187.0"/> <!-- Calle Blancos -->
        <stop busStop="-4629001928" duration="20" until="353.0"/> <!-- Colima -->
    </route>
    <route id="pt_train_2:5" edges="25549799#0 25549799#1 25549799#2 25549799#3 227891840#1 227891840#2 227891840#3 -716772051#1 -716772051#0 -25544852#0 -31422046#2 -31422046#1 -31422046#0 -468564875#2 -468564875#1 -468564875#0" >
        <stop busStop="4629001928" duration="20" until="122.0"/> <!-- Colima -->
        <stop busStop="-5824465670" duration="20" until="288.0"/> <!-- Calle Blancos -->
        <stop busStop="-4628999924" duration="20" until="441.0"/> <!-- Atlántico -->
    </route>
    <route id="pt_train_4:0" edges="452573164#0 452573164#1 452573164#2 452573164#3 452573164#4 452573164#6 452573164#8 452573164#9 25342835#1 25342835#2 1207582823 26428318#0 26428318#1 1038934246#0 1038934246#1 1038934246#2 1038934246#3 1038934246#3" >
        <stop busStop="4628999924@6559533" duration="20" until="183.0"/> <!-- Atlántico -->
        <stop busStop="4628999925" duration="20" until="245.0" jump="1.99489523699999"/> <!-- Estación Atlántico -->
    </route>
    <route id="pt_train_4:1" edges="1038934246#3 1038934246#3" >
        <stop busStop="4628999924@6559533" duration="20" until="31.0"/> <!-- Atlántico -->
        <stop busStop="4628999925" duration="20" until="104.0" jump="1.99489523699999"/> <!-- Estación Atlántico -->
    </route>
    <route id="pt_train_4:2" edges="452573164#0 452573164#1 452573164#2 452573164#3 452573164#4 452573164#6 452573164#8 452573164#9 25342835#1 25342835#2 1207582823 26428318#0 26428318#1 1038934246#0 1038934246#1 1038934246#2 1038934246#3 1038934246#3" >
        <stop busStop="4628999924@6559533" duration="20" until="183.0" jump="1.99489523699999"/> <!-- Atlántico -->
    </route>
    <route id="pt_train_4:3" edges="1038934246#3 1038934246#3" >
        <stop busStop="4628999924@6559533" duration="20" until="31.0"/> <!-- Atlántico -->
        <stop busStop="4628999925" duration="20" until="62.0" jump="1.99489523699999"/> <!-- Estación Atlántico -->
    </route>
    <flow id="pt_bus_R09:0" type="pt_bus" route="pt_bus_R09:0" begin="3.0" end="3603.0" period="600" line="R09:0" >
        <param key="name" value="Ruta 9 Santa Ana - San José"/>
        <param key="completeness" value="0.02"/>
    </flow>
    <flow id="pt_train_1:0" type="pt_train" route="pt_train_1:0" begin="132.0" end="3732.0" period="600" line="1:0" >
        <param key="name" value="Estación Belén - Estación Pacífico"/>
        <param key="completeness" value="0.17"/>
    </flow>
    <flow id="pt_train_1:1" type="pt_train" route="pt_train_1:1" begin="766.0" end="4366.0" period="600" line="1:1" >
        <param key="name" value="Estación Pacífico - Estación Belén"/>
        <param key="completeness" value="0.17"/>
    </flow>
    <flow id="pt_train_2:1" type="pt_train" route="pt_train_2:1" begin="526.0" end="4126.0" period="600" line="2:1" >
        <param key="name" value="Heredia - U. Latina"/>
        <param key="completeness" value="0.38"/>
    </flow>
    <flow id="pt_train_2:2" type="pt_train" route="pt_train_2:2" begin="1440.0" end="5040.0" period="600" line="2:2" >
        <param key="name" value="U. Latina - Heredia"/>
        <param key="completeness" value="0.38"/>
    </flow>
    <flow id="pt_train_1:2" type="pt_train" route="pt_train_1:2" begin="1453.0" end="5053.0" period="600" line="1:2" >
        <param key="name" value="Metrópoli - CFIA"/>
        <param key="completeness" value="0.32"/>
    </flow>
    <flow id="pt_train_2:3" type="pt_train" route="pt_train_2:3" begin="999.0" end="4599.0" period="600" line="2:3" >
        <param key="name" value="Alajuela - Atlántico"/>
        <param key="completeness" value="0.27"/>
    </flow>
    <flow id="pt_train_2:4" type="pt_train" route="pt_train_2:4" begin="2029.0" end="5629.0" period="600" line="2:4" >
        <param key="name" value="Atlántico - Heredia"/>
        <param key="completeness" value="0.50"/>
    </flow>
    <flow id="pt_train_2:5" type="pt_train" route="pt_train_2:5" begin="2462.0" end="6062.0" period="600" line="2:5" >
        <param key="name" value="Heredia - Atlántico"/>
        <param key="completeness" value="0.50"/>
    </flow>
    <flow id="pt_train_1:3" type="pt_train" route="pt_train_1:3" begin="1655.0" end="5255.0" period="600" line="1:3" >
        <param key="name" value="CFIA - Estación Belén"/>
        <param key="completeness" value="0.28"/>
    </flow>
    <flow id="pt_train_1:4" type="pt_train" route="pt_train_1:4" begin="2068.0" end="5668.0" period="600" line="1:4" >
        <param key="name" value="Metrópoli - Pacífico"/>
        <param key="completeness" value="0.21"/>
    </flow>
    <flow id="pt_bus_R09:1" type="pt_bus" route="pt_bus_R09:1" begin="15.0" end="3615.0" period="600" line="R09:1" >
        <param key="name" value="Ruta 9 San José - Santa Ana"/>
        <param key="completeness" value="0.06"/>
    </flow>
    <flow id="pt_train_1:5" type="pt_train" route="pt_train_1:5" begin="2615.0" end="6215.0" period="600" line="1:5" >
        <param key="name" value="Estación Pacífico - Metrópoli"/>
        <param key="completeness" value="0.21"/>
    </flow>
    <flow id="pt_train_1:6" type="pt_train" route="pt_train_1:6" begin="417.0" end="4017.0" period="600" line="1:6" >
        <param key="name" value="Estación Atlántico - Estación Belén"/>
        <param key="completeness" value="0.32"/>
    </flow>
    <flow id="pt_train_4:2" type="pt_train" route="pt_train_4:2" begin="1838.0" end="5438.0" period="600" line="4:2" >
        <param key="name" value="Los Ángeles - Estación Atlántico"/>
        <param key="completeness" value="0.18"/>
    </flow>
    <flow id="pt_train_1:7" type="pt_train" route="pt_train_1:7" begin="2021.0" end="5621.0" period="600" line="1:7" >
        <param key="name" value="CFIA - Estación Atlántico"/>
        <param key="completeness" value="0.33"/>
    </flow>
    <flow id="pt_train_4:3" type="pt_train" route="pt_train_4:3" begin="483.0" end="4083.0" period="600" line="4:3" >
        <param key="name" value="Estación Atlántico - Los Ángeles"/>
        <param key="completeness" value="0.18"/>
    </flow>
    <flow id="pt_bus_200:0" type="pt_bus" route="pt_bus_200:0" begin="485.0" end="4085.0" period="600" line="200:0" >
        <param key="name" value="Bus 200: Alajuela (Station Wagon) =&gt; San José"/>
        <param key="completeness" value="0.33"/>
    </flow>
    <flow id="pt_bus_203:1" type="pt_bus" route="pt_bus_203:1" begin="535.0" end="4135.0" period="600" line="203:1" >
        <param key="name" value="Bus 203: San José =&gt; Atenas"/>
        <param key="completeness" value="0.07"/>
    </flow>
    <flow id="pt_bus_06:0" type="pt_bus" route="pt_bus_06:0" begin="574.0" end="4174.0" period="600" line="06:0" >
        <param key="name" value="San José - Barrio Luján"/>
        <param key="completeness" value="0.10"/>
    </flow>
    <flow id="pt_bus_Ruta_9_Santa_Ana_-_San_José:0" type="pt_bus" route="pt_bus_Ruta_9_Santa_Ana_-_San_José:0" begin="15.0" end="3615.0" period="600" line="Ruta_9_Santa_Ana_-_San_José:0" >
        <param key="name" value="Ruta 9 Santa Ana - San José"/>
        <param key="completeness" value="0.05"/>
    </flow>
    <flow id="pt_bus_Ruta_08_San_José_-_Ruta_Periférica:0" type="pt_bus" route="pt_bus_Ruta_08_San_José_-_Ruta_Periférica:0" begin="17.0" end="3617.0" period="600" line="Ruta_08_San_José_-_Ruta_Periférica:0" >
        <param key="name" value="Ruta 08 San José - Ruta Periférica"/>
        <param key="completeness" value="1.00"/>
    </flow>
    <flow id="pt_bus_L4:0" type="pt_bus" route="pt_bus_L4:0" begin="52.0" end="3652.0" period="600" line="L4:0" >
        <param key="name" value="Ruta Bus La Periférica"/>
        <param key="completeness" value="0.05"/>
    </flow>
    <flow id="pt_bus_142:0" type="pt_bus" route="pt_bus_142:0" begin="55.0" end="3655.0" period="600" line="142:0" >
        <param key="name" value="Coronado-San José R:142"/>
        <param key="completeness" value="0.30"/>
    </flow>
    <flow id="pt_bus_203:0" type="pt_bus" route="pt_bus_203:0" begin="58.0" end="3658.0" period="600" line="203:0" >
        <param key="name" value="Bus 203: Atenas =&gt; San José"/>
        <param key="completeness" value="0.10"/>
    </flow>
    <flow id="pt_train_2:0" type="pt_train" route="pt_train_2:0" begin="93.0" end="3693.0" period="600" line="2:0" >
        <param key="name" value="Atlántico - Alajuela"/>
        <param key="completeness" value="0.27"/>
    </flow>
    <flow id="pt_train_4:0" type="pt_train" route="pt_train_4:0" begin="119.0" end="3719.0" period="600" line="4:0" >
        <param key="name" value="Estación Cartago - Estación Atlántico"/>
        <param key="completeness" value="0.20"/>
    </flow>
    <flow id="pt_train_4:1" type="pt_train" route="pt_train_4:1" begin="302.0" end="3902.0" period="600" line="4:1" >
        <param key="name" value="Estación Atlántico - Cartago"/>
        <param key="completeness" value="0.20"/>
    </flow>
</routes>
