<?xml version="1.0" encoding="UTF-8"?>

<!-- generated on 2026-02-15T18:22:06.090037-06:00 by Eclipse SUMO netconvert 1.26.0
<netconvertConfiguration xmlns:xsi="http://www.w3.org/2001/XMLSchema-instance" xsi:noNamespaceSchemaLocation="http://sumo.dlr.de/xsd/netconvertConfiguration.xsd">

    <input>
        <type-files value="${SUMO_HOME}\data\typemap\osmNetconvert.typ.xml,${SUMO_HOME}\data\typemap\osmNetconvertAerialway.typ.xml"/>
        <osm-files value="osm_bbox.osm.xml.gz"/>
    </input>

    <output>
        <output-file value="osm.net.xml.gz"/>
        <output.street-names value="true"/>
        <output.original-names value="true"/>
        <ptstop-output value="osm_stops.add.xml"/>
        <ptline-output value="osm_ptlines.xml"/>
        <ptline-clean-up value="true"/>
    </output>

    <projection>
        <proj value="+proj=merc +a=6378137 +b=6378137 +lat_ts=0.0 +lon_0=0.0 +x_0=0.0 +y_0=0 +k=1.0 +units=m +nadgrids=@null +wktext +no_defs"/>
    </projection>

    <processing>
        <geometry.remove value="true"/>
    </processing>

    <tls_building>
        <tls.discard-simple value="true"/>
        <tls.join value="true"/>
        <tls.guess-signals value="true"/>
        <tls.default-type value="actuated"/>
    </tls_building>

    <ramp_guessing>
        <ramps.guess value="true"/>
    </ramp_guessing>

    <edge_removal>
        <keep-edges.by-vclass value="passenger,bus,tram,rail_urban,subway,cable_car,rail"/>
    </edge_removal>

    <junctions>
        <junctions.join value="true"/>
    </junctions>

    <railway>
        <railway.topology.repair value="true"/>
    </railway>

</netconvertConfiguration>
-->

<additional xmlns:xsi="http://www.w3.org/2001/XMLSchema-instance" xsi:noNamespaceSchemaLocation="http://sumo.dlr.de/xsd/additional_file.xsd">
    <busStop id="-278449879" name="Contraloría" lane="-25841648#0_0" startPos="228.70" endPos="428.70" friendlyPos="true">
        <access lane="389745886#1_0" pos="283.40" length="66.37" friendlyPos="1"/>
    </busStop>
    <busStop id="-289555266" name="La Salle" lane="-25841648#0_0" startPos="1179.15" endPos="1379.15" friendlyPos="true"/>
    <busStop id="-4098870372" name="Parada CCG" lane="-25064160#3_0" startPos="28.05" endPos="43.05" friendlyPos="true" lines="142"/>
    <busStop id="-4100624695" name="San José" lane="-549800868_0" startPos="0.00" endPos="5.99" friendlyPos="true" lines="203">
        <access lane="1344685758_0" pos="1.20" length="21.41" friendlyPos="1"/>
        <access lane="30721346#0_0" pos="0.00" length="27.74" friendlyPos="1"/>
        <access lane="549800865_0" pos="59.01" length="33.00" friendlyPos="1"/>
        <access lane="549800867_0" pos="0.00" length="17.59" friendlyPos="1"/>
        <access lane="82877651_0" pos="62.43" length="28.19" friendlyPos="1"/>
    </busStop>
    <busStop id="-4628999924" name="Atlántico" lane="-468564875#0_0" startPos="0.00" endPos="107.71" friendlyPos="true">
        <access lane="260831609_0" pos="40.51" length="75.76" friendlyPos="1"/>
        <access lane="260831616#0_0" pos="0.00" length="75.82" friendlyPos="1"/>
        <access lane="380133292_0" pos="3.09" length="44.50" friendlyPos="1"/>
        <access lane="388500922#0_0" pos="111.98" length="49.47" friendlyPos="1"/>
        <access lane="657749175#0_0" pos="0.00" length="60.03" friendlyPos="1"/>
    </busStop>
    <busStop id="-4629001928" name="Colima" lane="-25549799#0_0" startPos="0.00" endPos="200.00" friendlyPos="true">
        <access lane="-223219193_0" pos="0.00" length="43.34" friendlyPos="1"/>
        <access lane="-319177395#1_0" pos="53.44" length="15.75" friendlyPos="1"/>
        <access lane="223219193_0" pos="40.43" length="39.46" friendlyPos="1"/>
        <access lane="319177395#0_0" pos="20.91" length="20.55" friendlyPos="1"/>
        <access lane="344140363#0_0" pos="0.00" length="92.84" friendlyPos="1"/>
    </busStop>
    <busStop id="-4636012378" name="La Corte" lane="1038934239#0_0" startPos="129.14" endPos="329.14" friendlyPos="true">
        <access lane="-1174311037_0" pos="37.86" length="11.08" friendlyPos="1"/>
        <access lane="1174311037_0" pos="25.82" length="6.28" friendlyPos="1"/>
        <access lane="25401072#0_0" pos="3.02" length="47.92" friendlyPos="1"/>
        <access lane="71075230#10_0" pos="0.00" length="70.04" friendlyPos="1"/>
        <access lane="71075230#9_0" pos="52.75" length="35.62" friendlyPos="1"/>
    </busStop>
    <busStop id="-4636012379" name="Plaza Cleto González Víquez" lane="-440793505#10_0" startPos="0.00" endPos="150.66" friendlyPos="true">
        <access lane="25113486_0" pos="75.68" length="83.15" friendlyPos="1"/>
        <access lane="389987214#0_0" pos="74.02" length="73.16" friendlyPos="1"/>
        <access lane="66040724#0_0" pos="0.00" length="83.40" friendlyPos="1"/>
        <access lane="807603679#0_0" pos="0.00" length="73.56" friendlyPos="1"/>
        <access lane="807603679#1_0" pos="0.00" length="75.76" friendlyPos="1"/>
    </busStop>
    <busStop id="-4636012380" name="Pacífico" lane="-446753979#15_0" startPos="0.00" endPos="200.00" friendlyPos="true">
        <access lane="25373470#4_0" pos="74.41" length="97.29" friendlyPos="1"/>
        <access lane="25373470#5_0" pos="48.62" length="37.39" friendlyPos="1"/>
        <access lane="25373470#8_0" pos="0.00" length="90.92" friendlyPos="1"/>
        <access lane="299887260#2_0" pos="61.19" length="87.33" friendlyPos="1"/>
        <access lane="299887266#0_0" pos="0.00" length="93.53" friendlyPos="1"/>
    </busStop>
    <busStop id="-4636012380@7357187" name="Pacífico" lane="-440793505#0_0" startPos="0.00" endPos="104.23" friendlyPos="true">
        <access lane="25373470#4_0" pos="74.41" length="97.29" friendlyPos="1"/>
        <access lane="25373470#5_0" pos="48.62" length="37.39" friendlyPos="1"/>
        <access lane="25373470#8_0" pos="0.00" length="90.92" friendlyPos="1"/>
        <access lane="299887260#2_0" pos="61.19" length="87.33" friendlyPos="1"/>
        <access lane="299887266#0_0" pos="0.00" length="93.53" friendlyPos="1"/>
    </busStop>
    <busStop id="-4636012381" name="Cuba" lane="-446753979#2_0" startPos="22.56" endPos="222.56" friendlyPos="true">
        <access lane="1179658032#2_0" pos="24.22" length="20.85" friendlyPos="1"/>
        <access lane="383269253#2-AddedOnRampEdge_0" pos="94.52" length="17.97" friendlyPos="1"/>
        <access lane="383269253#2_0" pos="3.88" length="7.19" friendlyPos="1"/>
        <access lane="383269253#3_0" pos="0.00" length="63.20" friendlyPos="1"/>
        <access lane="415556265#0_0" pos="116.46" length="62.70" friendlyPos="1"/>
    </busStop>
    <busStop id="-5310867778" name="Terminal Atenas" lane="-549800868_0" startPos="0.00" endPos="5.99" friendlyPos="true" lines="203">
        <access lane="1344685758_0" pos="4.27" length="21.42" friendlyPos="1"/>
        <access lane="30721346#0_0" pos="0.00" length="24.92" friendlyPos="1"/>
        <access lane="31437758#1_0" pos="29.08" length="31.42" friendlyPos="1"/>
        <access lane="549800867_0" pos="0.36" length="22.76" friendlyPos="1"/>
        <access lane="82877651_0" pos="62.43" length="33.27" friendlyPos="1"/>
    </busStop>
    <busStop id="-5824465670" name="Calle Blancos" lane="227891840#3_0" startPos="181.59" endPos="381.59" friendlyPos="true">
        <access lane="-25856531#1_0" pos="0.00" length="94.29" friendlyPos="1"/>
        <access lane="-25856531#3_0" pos="29.65" length="30.98" friendlyPos="1"/>
        <access lane="-39011719#1_0" pos="142.86" length="87.90" friendlyPos="1"/>
        <access lane="25856531#2_0" pos="43.86" length="45.38" friendlyPos="1"/>
        <access lane="39011719#0_0" pos="1.43" length="92.70" friendlyPos="1"/>
    </busStop>
    <busStop id="10719766598" lane="440793505#10_0" startPos="47.98" endPos="47.98" friendlyPos="true" lines="1">
        <access lane="25113486_0" pos="65.44" length="78.83" friendlyPos="1"/>
        <access lane="389987214#0_0" pos="63.83" length="68.57" friendlyPos="1"/>
        <access lane="66040724#0_0" pos="0.00" length="84.45" friendlyPos="1"/>
        <access lane="807603679#0_0" pos="0.00" length="75.05" friendlyPos="1"/>
        <access lane="807603679#1_0" pos="0.00" length="78.51" friendlyPos="1"/>
    </busStop>
    <busStop id="10857092910" name="Terminal Santa Ana" lane="549800867_0" startPos="0.00" endPos="6.80" friendlyPos="true" lines="R09"/>
    <busStop id="12452606525" name="Gimnasio Nacional" lane="220669507#0_0" startPos="2.07" endPos="17.07" friendlyPos="true" lines="R09">
        <access lane="1038938828_0" pos="0.00" length="115.11" friendlyPos="1"/>
        <access lane="25094079_0" pos="31.75" length="157.78" friendlyPos="1"/>
        <access lane="299866719#0_0" pos="77.85" length="146.91" friendlyPos="1"/>
        <access lane="299866719#1_0" pos="0.00" length="151.86" friendlyPos="1"/>
        <access lane="655657657_0" pos="74.70" length="39.85" friendlyPos="1"/>
    </busStop>
    <busStop id="12453512209" name="Torre Mercedes" lane="423270143#0_0" startPos="45.40" endPos="60.40" friendlyPos="true" lines="Ruta 9 Santa Ana - San José"/>
    <busStop id="12453512211" name="Park Inn" lane="13774544#6_0" startPos="57.94" endPos="72.94" friendlyPos="true" lines="Ruta 9 Santa Ana - San José"/>
    <busStop id="12453512212" name="Sarmiento" lane="1344679503#1_0" startPos="60.66" endPos="75.66" friendlyPos="true" lines="Ruta 9 Santa Ana - San José"/>
    <busStop id="1833745692" name="Avenida Central de Guadalupe" lane="1196913410_0" startPos="21.08" endPos="36.08" friendlyPos="true"/>
    <busStop id="2698004040" name="Parada Parque Nacional" lane="657749008_0" startPos="0.00" endPos="15.00" friendlyPos="true" lines="142"/>
    <busStop id="278449879" name="Contraloría" lane="25841648#0_0" startPos="1223.33" endPos="1423.33" friendlyPos="true" lines="1">
        <access lane="389745886#1_0" pos="283.40" length="66.37" friendlyPos="1"/>
    </busStop>
    <busStop id="289555266" name="La Salle" lane="25841648#0_0" startPos="272.88" endPos="472.88" friendlyPos="true" lines="1"/>
    <busStop id="3655894875" name="Registro Nacional Oeste - Paseo Colón" lane="298981555#0_0" startPos="14.76" endPos="29.76" friendlyPos="true" lines="203"/>
    <busStop id="3950755435" name="Parada de bus San José - Barrio Escalante y Carmiol - San Pedro - San José" lane="179736579#0_0" startPos="2.51" endPos="17.51" friendlyPos="true" lines="Ruta 08 San José - Ruta Periférica"/>
    <busStop id="3950802957" name="Parque John F. Kennedy" lane="1221406798#4_0" startPos="8.99" endPos="23.99" friendlyPos="true" lines="Ruta 08 San José - Ruta Periférica"/>
    <busStop id="4092185441" name="Parada bus Periférica L4" lane="222665295#1_0" startPos="33.94" endPos="48.94" friendlyPos="true">
        <access lane="-25097123#4_0" pos="0.00" length="76.32" friendlyPos="1"/>
        <access lane="-25401160#0_0" pos="73.44" length="158.66" friendlyPos="1"/>
        <access lane="25097123#4_0" pos="108.55" length="71.59" friendlyPos="1"/>
        <access lane="25097142_0" pos="76.95" length="189.29" friendlyPos="1"/>
        <access lane="25401160#0_0" pos="0.00" length="161.86" friendlyPos="1"/>
    </busStop>
    <busStop id="4098834270" name="Parada Municipalidad de Goicoechea 1" lane="24855888#0_0" startPos="89.51" endPos="104.51" friendlyPos="true"/>
    <busStop id="4098870366" name="Parada Parque España" lane="310175370#0_0" startPos="206.13" endPos="221.13" friendlyPos="true" lines="142"/>
    <busStop id="4098870368" name="Parada Hospital Calderón Guardia" lane="698899190#27_0" startPos="57.31" endPos="72.31" friendlyPos="true"/>
    <busStop id="4098870369" name="Parada Antigua Aduana" lane="298981125#0_0" startPos="52.93" endPos="67.93" friendlyPos="true" lines="142"/>
    <busStop id="4100624695" name="San José" lane="549800868_0" startPos="0.00" endPos="5.99" friendlyPos="true" lines="203">
        <access lane="1344685758_0" pos="1.20" length="21.41" friendlyPos="1"/>
        <access lane="30721346#0_0" pos="0.00" length="27.74" friendlyPos="1"/>
        <access lane="549800865_0" pos="59.01" length="33.00" friendlyPos="1"/>
        <access lane="549800867_0" pos="0.00" length="17.59" friendlyPos="1"/>
        <access lane="82877651_0" pos="62.43" length="28.19" friendlyPos="1"/>
    </busStop>
    <busStop id="4628999924" name="Atlántico" lane="468564875#0_0" startPos="0.00" endPos="107.71" friendlyPos="true" lines="2">
        <access lane="260831609_0" pos="40.51" length="75.76" friendlyPos="1"/>
        <access lane="260831616#0_0" pos="0.00" length="75.82" friendlyPos="1"/>
        <access lane="380133292_0" pos="3.09" length="44.50" friendlyPos="1"/>
        <access lane="388500922#0_0" pos="111.98" length="49.47" friendlyPos="1"/>
        <access lane="657749175#0_0" pos="0.00" length="60.03" friendlyPos="1"/>
    </busStop>
    <busStop id="4628999924@6559533" name="Atlántico" lane="1038934246#3_0" startPos="0.00" endPos="86.97" friendlyPos="true" lines="4 2 1">
        <access lane="260831609_0" pos="40.51" length="75.76" friendlyPos="1"/>
        <access lane="260831616#0_0" pos="0.00" length="75.82" friendlyPos="1"/>
        <access lane="380133292_0" pos="3.09" length="44.50" friendlyPos="1"/>
        <access lane="388500922#0_0" pos="111.98" length="49.47" friendlyPos="1"/>
        <access lane="657749175#0_0" pos="0.00" length="60.03" friendlyPos="1"/>
    </busStop>
    <busStop id="4628999925" name="Estación Atlántico" lane="1038934246#3_0" startPos="53.99" endPos="68.99" friendlyPos="true" lines="4 1">
        <access lane="260831609_0" pos="40.51" length="81.19" friendlyPos="1"/>
        <access lane="260831616#0_0" pos="14.34" length="77.05" friendlyPos="1"/>
        <access lane="380133292_0" pos="0.00" length="53.28" friendlyPos="1"/>
        <access lane="388500922#0_0" pos="100.80" length="41.23" friendlyPos="1"/>
        <access lane="657749175#0_0" pos="0.00" length="59.64" friendlyPos="1"/>
    </busStop>
    <busStop id="4629001928" name="Colima" lane="25549799#0_0" startPos="822.50" endPos="1022.50" friendlyPos="true" lines="2">
        <access lane="-223219193_0" pos="0.00" length="43.34" friendlyPos="1"/>
        <access lane="-319177395#1_0" pos="53.44" length="15.75" friendlyPos="1"/>
        <access lane="223219193_0" pos="40.43" length="39.46" friendlyPos="1"/>
        <access lane="319177395#0_0" pos="20.91" length="20.55" friendlyPos="1"/>
        <access lane="344140363#0_0" pos="0.00" length="92.84" friendlyPos="1"/>
    </busStop>
    <busStop id="4636012378" name="La Corte" lane="298488302#9_0" startPos="0.00" endPos="200.00" friendlyPos="true" lines="1">
        <access lane="-1174311037_0" pos="37.86" length="11.08" friendlyPos="1"/>
        <access lane="1174311037_0" pos="25.82" length="6.28" friendlyPos="1"/>
        <access lane="25401072#0_0" pos="3.02" length="47.92" friendlyPos="1"/>
        <access lane="71075230#10_0" pos="0.00" length="70.04" friendlyPos="1"/>
        <access lane="71075230#9_0" pos="52.75" length="35.62" friendlyPos="1"/>
    </busStop>
    <busStop id="4636012379" name="Plaza Cleto González Víquez" lane="440793505#10_0" startPos="0.00" endPos="150.66" friendlyPos="true" lines="1">
        <access lane="25113486_0" pos="75.68" length="83.15" friendlyPos="1"/>
        <access lane="389987214#0_0" pos="74.02" length="73.16" friendlyPos="1"/>
        <access lane="66040724#0_0" pos="0.00" length="83.40" friendlyPos="1"/>
        <access lane="807603679#0_0" pos="0.00" length="73.56" friendlyPos="1"/>
        <access lane="807603679#1_0" pos="0.00" length="75.76" friendlyPos="1"/>
    </busStop>
    <busStop id="4636012380" name="Pacífico" lane="446753979#15_0" startPos="9.56" endPos="209.56" friendlyPos="true" lines="1">
        <access lane="25373470#4_0" pos="74.41" length="97.29" friendlyPos="1"/>
        <access lane="25373470#5_0" pos="48.62" length="37.39" friendlyPos="1"/>
        <access lane="25373470#8_0" pos="0.00" length="90.92" friendlyPos="1"/>
        <access lane="299887260#2_0" pos="61.19" length="87.33" friendlyPos="1"/>
        <access lane="299887266#0_0" pos="0.00" length="93.53" friendlyPos="1"/>
    </busStop>
    <busStop id="4636012381" name="Cuba" lane="446753979#2_0" startPos="160.16" endPos="360.16" friendlyPos="true" lines="1">
        <access lane="1179658032#2_0" pos="24.22" length="20.85" friendlyPos="1"/>
        <access lane="383269253#2-AddedOnRampEdge_0" pos="94.52" length="17.97" friendlyPos="1"/>
        <access lane="383269253#2_0" pos="3.88" length="7.19" friendlyPos="1"/>
        <access lane="383269253#3_0" pos="0.00" length="63.20" friendlyPos="1"/>
        <access lane="415556265#0_0" pos="116.46" length="62.70" friendlyPos="1"/>
    </busStop>
    <busStop id="5310867775" name="Centro Nacional Rehabilitación" lane="31743949#2_0" startPos="53.56" endPos="68.56" friendlyPos="true" lines="203"/>
    <busStop id="5310867776" name="Hospital de Niños - Paseo Colón" lane="423270142#0_0" startPos="23.81" endPos="38.81" friendlyPos="true" lines="203"/>
    <busStop id="5310867777" name="Corobicí - General Cañas" lane="389754235_0" startPos="53.72" endPos="68.72" friendlyPos="true" lines="203">
        <access lane="-25401003#2_0" pos="63.17" length="34.44" friendlyPos="1"/>
        <access lane="-655655655#4_0" pos="208.94" length="53.39" friendlyPos="1"/>
        <access lane="25401003#0_0" pos="131.12" length="39.24" friendlyPos="1"/>
        <access lane="31743949#3_0" pos="101.59" length="111.41" friendlyPos="1"/>
        <access lane="34006632_0" pos="0.00" length="48.92" friendlyPos="1"/>
    </busStop>
    <busStop id="5310867778" name="Terminal Atenas" lane="549800868_0" startPos="0.00" endPos="5.99" friendlyPos="true" lines="203">
        <access lane="1344685758_0" pos="4.27" length="21.42" friendlyPos="1"/>
        <access lane="30721346#0_0" pos="0.00" length="24.92" friendlyPos="1"/>
        <access lane="31437758#1_0" pos="29.08" length="31.42" friendlyPos="1"/>
        <access lane="549800867_0" pos="0.36" length="22.76" friendlyPos="1"/>
        <access lane="82877651_0" pos="62.43" length="33.27" friendlyPos="1"/>
    </busStop>
    <busStop id="5311344479" name="San José" lane="549832822_0" startPos="30.56" endPos="45.56" friendlyPos="true" lines="200"/>
    <busStop id="5501954525" name="Bus Barrio Luján" lane="366059389#3_0" startPos="51.78" endPos="66.78" friendlyPos="true"/>
    <busStop id="5501955422" name="Luján - San José" lane="135050788#1_0" startPos="14.22" endPos="29.22" friendlyPos="true"/>
    <busStop id="5824465670" name="Calle Blancos" lane="716772051#2_0" startPos="0.00" endPos="200.00" friendlyPos="true" lines="2">
        <access lane="-25856531#1_0" pos="0.00" length="94.29" friendlyPos="1"/>
        <access lane="-25856531#3_0" pos="29.65" length="30.98" friendlyPos="1"/>
        <access lane="-39011719#1_0" pos="142.86" length="87.90" friendlyPos="1"/>
        <access lane="25856531#2_0" pos="43.86" length="45.38" friendlyPos="1"/>
        <access lane="39011719#0_0" pos="1.43" length="92.70" friendlyPos="1"/>
    </busStop>
    <busStop id="6812665584" name="Paradas Escazú-San José" lane="1344679503#1_0" startPos="60.67" endPos="75.67" friendlyPos="true" lines="R09 Ruta 9 Santa Ana - San José"/>
    <busStop id="6812679486" name="Paradas San José-Escazu" lane="1344685755#1_0" startPos="39.60" endPos="54.60" friendlyPos="true" lines="R09"/>
</additional>
