<?xml version="1.0" encoding="UTF-8"?>

<!-- generated on 2026-02-15 18:33:49.828216 by Eclipse SUMO osmWebWizard.py v1_26_0+0000-fa7df22d7f1
<configuration>
    <net-file value="C:\Users\sebas\2026-02-15-18-21-36\2026-02-15-18-31-42\osm.net.xml.gz"/>
    <output-trip-file value="C:\Users\sebas\2026-02-15-18-21-36\2026-02-15-18-31-42\osm.bus.trips.xml"/>
    <route-file value="C:\Users\sebas\2026-02-15-18-21-36\2026-02-15-18-31-42\osm.bus.rou.xml"/>
    <prefix value="bus"/>
    <trip-attributes value="departLane=&quot;best&quot;"/>
    <fringe-start-attributes value="departSpeed=&quot;max&quot;"/>
    <vehicle-class value="bus"/>
    <fringe-factor value="5"/>
    <edge-permission value="bus"/>
    <via-edge-types value="highway.motorway,highway.motorway_link,highway.trunk_link,highway.primary_link,highway.secondary_link,highway.tertiary_link"/>
    <min-distance value="600.0"/>
    <min-distance.fringe value="10.0"/>
    <remove-loops value="True"/>
    <insertion-density value="7.0"/>
</configuration>
-->

<routes xmlns:xsi="http://www.w3.org/2001/XMLSchema-instance" xsi:noNamespaceSchemaLocation="http://sumo.dlr.de/xsd/routes_file.xsd">
    <vType id="bus_bus" vClass="bus"/>
    <trip id="bus0" depart="0.00" from="25115487#0" to="-1305344772#1" departLane="best" type="bus_bus" departSpeed="max"/>
    <trip id="bus1" depart="0.62" from="-300405731#1" to="-25474362#1" departLane="best" type="bus_bus"/>
    <trip id="bus2" depart="1.23" from="25534170#0" to="25474449#1" departLane="best" type="bus_bus"/>
    <trip id="bus3" depart="1.85" from="390153887#0" to="-194381753#0" departLane="best" type="bus_bus"/>
    <trip id="bus4" depart="2.47" from="1038939576" to="-1382660582#1" departLane="best" type="bus_bus"/>
    <trip id="bus5" depart="3.09" from="-25534068#5" to="175298538" departLane="best" type="bus_bus"/>
    <trip id="bus6" depart="3.70" from="-1318021564" to="-25401322#2" departLane="best" type="bus_bus" departSpeed="max"/>
    <trip id="bus7" depart="4.32" from="25146700#0" to="222393008#0" departLane="best" type="bus_bus" departSpeed="max"/>
    <trip id="bus8" depart="4.94" from="-25534108#1" to="25114557#4" departLane="best" type="bus_bus" departSpeed="max"/>
    <trip id="bus9" depart="5.55" from="30988989" to="-111285865" departLane="best" type="bus_bus"/>
    <trip id="bus10" depart="6.17" from="304597417" to="25534132" departLane="best" type="bus_bus"/>
    <trip id="bus11" depart="6.79" from="-366207707" to="-25114574#0" departLane="best" type="bus_bus" departSpeed="max"/>
    <trip id="bus12" depart="7.41" from="651731623#9" to="-377909528#0" departLane="best" type="bus_bus"/>
    <trip id="bus13" depart="8.02" from="33541752#3" to="25146682#1" departLane="best" type="bus_bus"/>
    <trip id="bus14" depart="8.64" from="305541546#0" to="260708424#3" departLane="best" type="bus_bus"/>
    <trip id="bus15" depart="9.26" from="194272426" to="68867824#0" departLane="best" type="bus_bus" departSpeed="max"/>
    <trip id="bus16" depart="9.87" from="-473663046" to="226090190#0" departLane="best" type="bus_bus" departSpeed="max"/>
    <trip id="bus17" depart="10.49" from="31780215#7" to="25342843#0" departLane="best" type="bus_bus"/>
    <trip id="bus18" depart="11.11" from="362886227#1" to="25111174#2" departLane="best" type="bus_bus"/>
    <trip id="bus19" depart="11.73" from="25473744#0" to="-172376526#0" departLane="best" type="bus_bus"/>
    <trip id="bus20" depart="12.34" from="-25544885#3" to="-304597423" departLane="best" type="bus_bus"/>
    <trip id="bus21" depart="12.96" from="-207695481#1" to="-25508784#1" departLane="best" type="bus_bus"/>
    <trip id="bus22" depart="13.58" from="-222823982" to="-263159117#0" departLane="best" type="bus_bus" departSpeed="max"/>
    <trip id="bus23" depart="14.19" from="25114574#0" to="-49071155#1" departLane="best" type="bus_bus" departSpeed="max"/>
    <trip id="bus24" depart="14.81" from="-421321955" to="-25465173#1" departLane="best" type="bus_bus" departSpeed="max"/>
    <trip id="bus25" depart="15.43" from="-263307341" to="549800860#1" departLane="best" type="bus_bus" departSpeed="max"/>
    <trip id="bus26" depart="16.04" from="-25401279#2" to="260708234#0" departLane="best" type="bus_bus"/>
    <trip id="bus27" depart="16.66" from="-25373507#0" to="-63530594#0" departLane="best" type="bus_bus"/>
    <trip id="bus28" depart="17.28" from="785999996#1-AddedOnRampEdge" to="25401095#2" departLane="best" type="bus_bus"/>
    <trip id="bus29" depart="17.90" from="203268220#3" to="25508549#2" departLane="best" type="bus_bus"/>
    <trip id="bus30" depart="18.51" from="32207384#0" to="300888459#0" departLane="best" type="bus_bus"/>
    <trip id="bus31" depart="19.13" from="-342165971" to="-260798420#8" departLane="best" type="bus_bus" departSpeed="max"/>
    <trip id="bus32" depart="19.75" from="-25508799#0" to="570537257#2" departLane="best" type="bus_bus"/>
    <trip id="bus33" depart="20.36" from="366207777#0-AddedOnRampEdge" to="-32207383" departLane="best" type="bus_bus"/>
    <trip id="bus34" depart="20.98" from="25306008#0" to="-72650847#0" departLane="best" type="bus_bus" departSpeed="max"/>
    <trip id="bus35" depart="21.60" from="442378387" to="1418218652" departLane="best" type="bus_bus" departSpeed="max"/>
    <trip id="bus36" depart="22.22" from="-263158839#0" to="-25534399#1" departLane="best" type="bus_bus"/>
    <trip id="bus37" depart="22.83" from="207257118#6" to="-259688422" departLane="best" type="bus_bus"/>
    <trip id="bus38" depart="23.45" from="222527091#4" to="417386684" departLane="best" type="bus_bus"/>
    <trip id="bus39" depart="24.07" from="-653976489#0" to="-25473951#0" departLane="best" type="bus_bus"/>
    <trip id="bus40" depart="24.68" from="908901657-AddedOnRampEdge" to="194272458" departLane="best" type="bus_bus"/>
    <trip id="bus41" depart="25.30" from="-221249854#0" to="-172376531#3" departLane="best" type="bus_bus"/>
    <trip id="bus42" depart="25.92" from="-24841836#13" to="25349341#1" departLane="best" type="bus_bus"/>
    <trip id="bus43" depart="26.54" from="298493240#0" to="1181522540" departLane="best" type="bus_bus"/>
    <trip id="bus44" depart="27.15" from="-173943258#1" to="-64624269#0" departLane="best" type="bus_bus" departSpeed="max"/>
    <trip id="bus45" depart="27.77" from="891357536#1" to="220262062#0" departLane="best" type="bus_bus"/>
    <trip id="bus46" depart="28.39" from="684611726#3" to="366207685#4" departLane="best" type="bus_bus"/>
    <trip id="bus47" depart="29.00" from="-1181255194" to="258586051#0" departLane="best" type="bus_bus" departSpeed="max"/>
    <trip id="bus48" depart="29.62" from="25401148#3" to="221232880#4" departLane="best" type="bus_bus"/>
    <trip id="bus49" depart="30.24" from="-263307322" to="25401134#0" departLane="best" type="bus_bus" departSpeed="max"/>
    <trip id="bus50" depart="30.86" from="-25094059#2" to="1200831591#2" departLane="best" type="bus_bus"/>
    <trip id="bus51" depart="31.47" from="1204207071" to="64612218#1" departLane="best" type="bus_bus" departSpeed="max"/>
    <trip id="bus52" depart="32.09" from="366207746#2" to="-260707335#0" departLane="best" type="bus_bus"/>
    <trip id="bus53" depart="32.71" from="172376526#0" to="-25342853#1" departLane="best" type="bus_bus" departSpeed="max"/>
    <trip id="bus54" depart="33.32" from="422129546#1" to="371514295" departLane="best" type="bus_bus"/>
    <trip id="bus55" depart="33.94" from="-31780246#5" to="25401030" departLane="best" type="bus_bus" departSpeed="max"/>
    <trip id="bus56" depart="34.56" from="25094072#0" to="-25114559#2" departLane="best" type="bus_bus"/>
    <trip id="bus57" depart="35.18" from="260708424#4" to="221252051#1" departLane="best" type="bus_bus"/>
    <trip id="bus58" depart="35.79" from="263306790#4" to="220276001" departLane="best" type="bus_bus"/>
    <trip id="bus59" depart="36.41" from="-1199254412#1" to="483477835" departLane="best" type="bus_bus"/>
    <trip id="bus60" depart="37.03" from="371514298" to="342407716#5" departLane="best" type="bus_bus"/>
    <trip id="bus61" depart="37.64" from="-319784139#1" to="-172472929" departLane="best" type="bus_bus"/>
    <trip id="bus62" depart="38.26" from="369767730#1" to="59677109#2" departLane="best" type="bus_bus"/>
    <trip id="bus63" depart="38.88" from="-221192600#1" to="172376518" departLane="best" type="bus_bus"/>
    <trip id="bus64" depart="39.50" from="-194381734#1" to="298488305#8" departLane="best" type="bus_bus" departSpeed="max"/>
    <trip id="bus65" depart="40.11" from="260801162" to="-226092035#0" departLane="best" type="bus_bus" departSpeed="max"/>
    <trip id="bus66" depart="40.73" from="1448532231#1" to="222823979#1" departLane="best" type="bus_bus"/>
    <trip id="bus67" depart="41.35" from="-263158839#2" to="378531355#1" departLane="best" type="bus_bus"/>
    <trip id="bus68" depart="41.96" from="104725389" to="-25473732#0" departLane="best" type="bus_bus"/>
    <trip id="bus69" depart="42.58" from="194272454#0" to="260708425" departLane="best" type="bus_bus"/>
    <trip id="bus70" depart="43.20" from="-25474449#2" to="-319177817#2" departLane="best" type="bus_bus" departSpeed="max"/>
    <trip id="bus71" depart="43.81" from="84636487#2" to="25401325" departLane="best" type="bus_bus"/>
    <trip id="bus72" depart="44.43" from="117849331#2" to="202296583" departLane="best" type="bus_bus"/>
    <trip id="bus73" depart="45.05" from="-25113506#0" to="-25474421#0" departLane="best" type="bus_bus"/>
    <trip id="bus74" depart="45.67" from="-363397512" to="25114554" departLane="best" type="bus_bus"/>
    <trip id="bus75" depart="46.28" from="-258343331#2" to="-25473952#0" departLane="best" type="bus_bus"/>
    <trip id="bus76" depart="46.90" from="-194651123#1" to="25373488#10" departLane="best" type="bus_bus"/>
    <trip id="bus77" depart="47.52" from="360634054#1" to="-172543773#3" departLane="best" type="bus_bus"/>
    <trip id="bus78" depart="48.13" from="-258585130" to="25473895#2" departLane="best" type="bus_bus" departSpeed="max"/>
    <trip id="bus79" depart="48.75" from="-25519478#3" to="-24619899#2" departLane="best" type="bus_bus" departSpeed="max"/>
    <trip id="bus80" depart="49.37" from="549800866#1" to="25097112" departLane="best" type="bus_bus"/>
    <trip id="bus81" depart="49.99" from="1382357635#1" to="31008064#0" departLane="best" type="bus_bus"/>
    <trip id="bus82" depart="50.60" from="-222527091#3" to="1198131610" departLane="best" type="bus_bus"/>
    <trip id="bus83" depart="51.22" from="104725393" to="16158604#0" departLane="best" type="bus_bus" departSpeed="max"/>
    <trip id="bus84" depart="51.84" from="25532704#0" to="25474288" departLane="best" type="bus_bus" departSpeed="max"/>
    <trip id="bus85" depart="52.45" from="727112960" to="-204140821#2" departLane="best" type="bus_bus"/>
    <trip id="bus86" depart="53.07" from="-659563555#0" to="-39011719#1" departLane="best" type="bus_bus"/>
    <trip id="bus87" depart="53.69" from="362886227#0" to="-258343325" departLane="best" type="bus_bus"/>
    <trip id="bus88" depart="54.31" from="-25473762" to="131930082#1" departLane="best" type="bus_bus"/>
    <trip id="bus89" depart="54.92" from="1038938828" to="-263306457" departLane="best" type="bus_bus"/>
    <trip id="bus90" depart="55.54" from="-260796525" to="472843104#2" departLane="best" type="bus_bus"/>
    <trip id="bus91" depart="56.16" from="1197094899" to="366207702" departLane="best" type="bus_bus"/>
    <trip id="bus92" depart="56.77" from="198340156" to="-172450757#1" departLane="best" type="bus_bus"/>
    <trip id="bus93" depart="57.39" from="984021858" to="343333845" departLane="best" type="bus_bus"/>
    <trip id="bus94" depart="58.01" from="680858774" to="483477827#5" departLane="best" type="bus_bus"/>
    <trip id="bus95" depart="58.63" from="342407712#0" to="-25146694#2" departLane="best" type="bus_bus"/>
    <trip id="bus96" depart="59.24" from="16158886" to="-25473758#0" departLane="best" type="bus_bus"/>
    <trip id="bus97" depart="59.86" from="-656341101#1" to="-172472933" departLane="best" type="bus_bus" departSpeed="max"/>
    <trip id="bus98" depart="60.48" from="-483477827#1" to="727112961#1" departLane="best" type="bus_bus"/>
    <trip id="bus99" depart="61.09" from="-263159117#0" to="309871389#0" departLane="best" type="bus_bus"/>
    <trip id="bus100" depart="61.71" from="1205565971#1" to="1184882566#0" departLane="best" type="bus_bus"/>
    <trip id="bus101" depart="62.33" from="652322207#0" to="824298079#0" departLane="best" type="bus_bus"/>
    <trip id="bus102" depart="62.95" from="202306999#0" to="258585130" departLane="best" type="bus_bus" departSpeed="max"/>
    <trip id="bus103" depart="63.56" from="-25342862#0" to="-31336095#5" departLane="best" type="bus_bus"/>
    <trip id="bus104" depart="64.18" from="675061411" to="25111944#6" departLane="best" type="bus_bus"/>
    <trip id="bus105" depart="64.80" from="194381742#0" to="263306475" departLane="best" type="bus_bus"/>
    <trip id="bus106" depart="65.41" from="-172450756#0" to="25113499" departLane="best" type="bus_bus"/>
    <trip id="bus107" depart="66.03" from="-25348671#2" to="656339515" departLane="best" type="bus_bus"/>
    <trip id="bus108" depart="66.65" from="-207767837#1" to="-25373488#2" departLane="best" type="bus_bus"/>
    <trip id="bus109" depart="67.26" from="227891837#6" to="25474387#1" departLane="best" type="bus_bus"/>
    <trip id="bus110" depart="67.88" from="-258583056#1" to="-222367943#7" departLane="best" type="bus_bus"/>
    <trip id="bus111" depart="68.50" from="389735348" to="-25534381#1" departLane="best" type="bus_bus"/>
    <trip id="bus112" depart="69.12" from="227891836" to="25342845#2" departLane="best" type="bus_bus"/>
    <trip id="bus113" depart="69.73" from="1038927901#0" to="25113494#0" departLane="best" type="bus_bus"/>
    <trip id="bus114" depart="70.35" from="172538020" to="509354019#3" departLane="best" type="bus_bus" departSpeed="max"/>
    <trip id="bus115" depart="70.97" from="-25474533#0" to="258585113" departLane="best" type="bus_bus"/>
    <trip id="bus116" depart="71.58" from="-258585134#5" to="-72650847#0" departLane="best" type="bus_bus"/>
    <trip id="bus117" depart="72.20" from="25373474#3" to="-31448589#1" departLane="best" type="bus_bus"/>
    <trip id="bus118" depart="72.82" from="-342401465" to="26340886#2" departLane="best" type="bus_bus" departSpeed="max"/>
    <trip id="bus119" depart="73.44" from="-194757681#1" to="1418218648" departLane="best" type="bus_bus"/>
    <trip id="bus120" depart="74.05" from="937318609#5" to="84636484#1" departLane="best" type="bus_bus"/>
    <trip id="bus121" depart="74.67" from="-198399079#1" to="-25473756#0" departLane="best" type="bus_bus"/>
    <trip id="bus122" depart="75.29" from="-263159117#0" to="49374837" departLane="best" type="bus_bus"/>
    <trip id="bus123" depart="75.90" from="378602353" to="383269250#3" departLane="best" type="bus_bus"/>
    <trip id="bus124" depart="76.52" from="-421321953" to="-25115477#11" departLane="best" type="bus_bus" departSpeed="max"/>
    <trip id="bus125" depart="77.14" from="31822601#0" to="25534381#2" departLane="best" type="bus_bus"/>
    <trip id="bus126" depart="77.76" from="25097114#0" to="748114119#0" departLane="best" type="bus_bus"/>
    <trip id="bus127" depart="78.37" from="25266066" to="-1138574867" departLane="best" type="bus_bus" departSpeed="max"/>
    <trip id="bus128" depart="78.99" from="31425236#1" to="-31448582#2" departLane="best" type="bus_bus"/>
    <trip id="bus129" depart="79.61" from="-25115501#11" to="-221252046#0" departLane="best" type="bus_bus"/>
    <trip id="bus130" depart="80.22" from="-24619892#1" to="227891832" departLane="best" type="bus_bus"/>
    <trip id="bus131" depart="80.84" from="-298981125#0" to="25146685#1" departLane="best" type="bus_bus"/>
    <trip id="bus132" depart="81.46" from="25474468#0" to="-25439690#2" departLane="best" type="bus_bus" departSpeed="max"/>
    <trip id="bus133" depart="82.08" from="25114570#0" to="-260707335#6" departLane="best" type="bus_bus" departSpeed="max"/>
    <trip id="bus134" depart="82.69" from="16813289#1" to="418153571" departLane="best" type="bus_bus"/>
    <trip id="bus135" depart="83.31" from="324540756#5" to="-194757681#0" departLane="best" type="bus_bus"/>
    <trip id="bus136" depart="83.93" from="104725393" to="-263157921#1" departLane="best" type="bus_bus" departSpeed="max"/>
    <trip id="bus137" depart="84.54" from="-1092769055" to="299887271#2" departLane="best" type="bus_bus" departSpeed="max"/>
    <trip id="bus138" depart="85.16" from="25114791" to="-259686858" departLane="best" type="bus_bus"/>
    <trip id="bus139" depart="85.78" from="25544414#0" to="226088663" departLane="best" type="bus_bus"/>
    <trip id="bus140" depart="86.40" from="108852986" to="-1158026720" departLane="best" type="bus_bus" departSpeed="max"/>
    <trip id="bus141" depart="87.01" from="-202306999#2" to="388559873#0" departLane="best" type="bus_bus"/>
    <trip id="bus142" depart="87.63" from="417421511" to="222527091#3" departLane="best" type="bus_bus" departSpeed="max"/>
    <trip id="bus143" depart="88.25" from="31822616#0" to="25112805#1" departLane="best" type="bus_bus"/>
    <trip id="bus144" depart="88.86" from="-25306088#2" to="-226090192#0" departLane="best" type="bus_bus" departSpeed="max"/>
    <trip id="bus145" depart="89.48" from="-319788026" to="417421512" departLane="best" type="bus_bus" departSpeed="max"/>
    <trip id="bus146" depart="90.10" from="298985986#2" to="366207685#2" departLane="best" type="bus_bus"/>
    <trip id="bus147" depart="90.72" from="413389561#0" to="-25470361#0" departLane="best" type="bus_bus"/>
    <trip id="bus148" depart="91.33" from="263307882#0" to="389745886#1" departLane="best" type="bus_bus" departSpeed="max"/>
    <trip id="bus149" depart="91.95" from="-671688191" to="25342853#0" departLane="best" type="bus_bus" departSpeed="max"/>
    <trip id="bus150" depart="92.57" from="-25342860#0" to="483477836" departLane="best" type="bus_bus"/>
    <trip id="bus151" depart="93.18" from="310096358#3" to="383428083#1" departLane="best" type="bus_bus"/>
    <trip id="bus152" depart="93.80" from="-1299186485" to="260806527#3" departLane="best" type="bus_bus"/>
    <trip id="bus153" depart="94.42" from="-362886525#9" to="49069534#2" departLane="best" type="bus_bus"/>
    <trip id="bus154" depart="95.03" from="300598459" to="366207733#4" departLane="best" type="bus_bus"/>
    <trip id="bus155" depart="95.65" from="310096358#3" to="-260797486#2" departLane="best" type="bus_bus"/>
    <trip id="bus156" depart="96.27" from="296152662#0" to="-220260236" departLane="best" type="bus_bus" departSpeed="max"/>
    <trip id="bus157" depart="96.89" from="366207713#0" to="363819374" departLane="best" type="bus_bus"/>
    <trip id="bus158" depart="97.50" from="-25534170#1" to="319177819#1" departLane="best" type="bus_bus"/>
    <trip id="bus159" depart="98.12" from="12665899#3" to="-31780246#0" departLane="best" type="bus_bus"/>
    <trip id="bus160" depart="98.74" from="298981555#1" to="-25474514#1" departLane="best" type="bus_bus"/>
    <trip id="bus161" depart="99.35" from="-1209117737" to="-25401154#0" departLane="best" type="bus_bus" departSpeed="max"/>
    <trip id="bus162" depart="99.97" from="-360610413#1" to="366207733#6" departLane="best" type="bus_bus"/>
    <trip id="bus163" depart="100.59" from="660165371#0" to="-263307116#0" departLane="best" type="bus_bus" departSpeed="max"/>
    <trip id="bus164" depart="101.21" from="25115493#2" to="-96330341#0" departLane="best" type="bus_bus"/>
    <trip id="bus165" depart="101.82" from="717612321#1" to="221228813#0" departLane="best" type="bus_bus"/>
    <trip id="bus166" depart="102.44" from="557441001#0" to="-221252045" departLane="best" type="bus_bus"/>
    <trip id="bus167" depart="103.06" from="68310467" to="-25342853#0" departLane="best" type="bus_bus" departSpeed="max"/>
    <trip id="bus168" depart="103.67" from="657749010" to="-260708426" departLane="best" type="bus_bus"/>
    <trip id="bus169" depart="104.29" from="-24630718#1" to="1200826467" departLane="best" type="bus_bus"/>
    <trip id="bus170" depart="104.91" from="25519478#1" to="-319182466#1" departLane="best" type="bus_bus"/>
    <trip id="bus171" depart="105.53" from="25091145" to="194381734#1" departLane="best" type="bus_bus"/>
    <trip id="bus172" depart="106.14" from="-49290003#7" to="25111168#0" departLane="best" type="bus_bus"/>
    <trip id="bus173" depart="106.76" from="-260804833" to="258343331#2" departLane="best" type="bus_bus" departSpeed="max"/>
    <trip id="bus174" depart="107.38" from="-1043593931#1" to="481475227#0" departLane="best" type="bus_bus" departSpeed="max"/>
    <trip id="bus175" depart="107.99" from="194272447#0" to="258585737" departLane="best" type="bus_bus" departSpeed="max"/>
    <trip id="bus176" depart="108.61" from="25544887#0" to="25473948#1" departLane="best" type="bus_bus"/>
    <trip id="bus177" depart="109.23" from="-418167127#1" to="-172540217" departLane="best" type="bus_bus"/>
    <trip id="bus178" depart="109.85" from="25342870" to="-363244240#0" departLane="best" type="bus_bus"/>
    <trip id="bus179" depart="110.46" from="-324541011#2" to="362866994#1" departLane="best" type="bus_bus" departSpeed="max"/>
    <trip id="bus180" depart="111.08" from="25474515" to="-31734209" departLane="best" type="bus_bus"/>
    <trip id="bus181" depart="111.70" from="-319789457" to="1054098546" departLane="best" type="bus_bus"/>
    <trip id="bus182" depart="112.31" from="-659433946" to="-310174738" departLane="best" type="bus_bus" departSpeed="max"/>
    <trip id="bus183" depart="112.93" from="-25114565#1" to="1181465253#0" departLane="best" type="bus_bus"/>
    <trip id="bus184" depart="113.55" from="56317806#0" to="25474457" departLane="best" type="bus_bus"/>
    <trip id="bus185" depart="114.17" from="417402765#1" to="25316179#0" departLane="best" type="bus_bus"/>
    <trip id="bus186" depart="114.78" from="-31822615#1" to="222665295#1" departLane="best" type="bus_bus" departSpeed="max"/>
    <trip id="bus187" depart="115.40" from="-1000972456" to="-299887731#4" departLane="best" type="bus_bus" departSpeed="max"/>
    <trip id="bus188" depart="116.02" from="111285865" to="25111946" departLane="best" type="bus_bus" departSpeed="max"/>
    <trip id="bus189" depart="116.63" from="25266069#0" to="149633288#2" departLane="best" type="bus_bus"/>
    <trip id="bus190" depart="117.25" from="1196894861" to="-25473758#0" departLane="best" type="bus_bus"/>
    <trip id="bus191" depart="117.87" from="1384359788" to="417428636#7" departLane="best" type="bus_bus"/>
    <trip id="bus192" depart="118.49" from="298985986#1" to="-25215032#2" departLane="best" type="bus_bus"/>
    <trip id="bus193" depart="119.10" from="-220276000#1" to="196030420" departLane="best" type="bus_bus"/>
    <trip id="bus194" depart="119.72" from="25114565#0" to="-366207740" departLane="best" type="bus_bus"/>
    <trip id="bus195" depart="120.34" from="31425252" to="26338567#1" departLane="best" type="bus_bus"/>
    <trip id="bus196" depart="120.95" from="25373488#8" to="-25474404#6" departLane="best" type="bus_bus"/>
    <trip id="bus197" depart="121.57" from="-25474387#2" to="-127853967#4" departLane="best" type="bus_bus" departSpeed="max"/>
    <trip id="bus198" depart="122.19" from="-259619456#1" to="16814426#4" departLane="best" type="bus_bus"/>
    <trip id="bus199" depart="122.80" from="342407722#0" to="-175298538" departLane="best" type="bus_bus"/>
    <trip id="bus200" depart="123.42" from="-756355268" to="25373470#5" departLane="best" type="bus_bus"/>
    <trip id="bus201" depart="124.04" from="-25473948#2" to="25534081#2" departLane="best" type="bus_bus"/>
    <trip id="bus202" depart="124.66" from="17152908#1" to="-25534185#0" departLane="best" type="bus_bus"/>
    <trip id="bus203" depart="125.27" from="25306088#0" to="-108853039#5" departLane="best" type="bus_bus"/>
    <trip id="bus204" depart="125.89" from="258583056#2" to="299887266#4" departLane="best" type="bus_bus"/>
    <trip id="bus205" depart="126.51" from="-240439664" to="1196879175#1" departLane="best" type="bus_bus" departSpeed="max"/>
    <trip id="bus206" depart="127.12" from="-25401363#5" to="652322208#5" departLane="best" type="bus_bus"/>
    <trip id="bus207" depart="127.74" from="172536119" to="-172450755#0" departLane="best" type="bus_bus" departSpeed="max"/>
    <trip id="bus208" depart="128.36" from="-260708424#1" to="362871092" departLane="best" type="bus_bus"/>
    <trip id="bus209" depart="128.98" from="25347878#1" to="748561932" departLane="best" type="bus_bus"/>
    <trip id="bus210" depart="129.59" from="389987735#1" to="25266064#1" departLane="best" type="bus_bus"/>
    <trip id="bus211" depart="130.21" from="25474510" to="17414774#2" departLane="best" type="bus_bus" departSpeed="max"/>
    <trip id="bus212" depart="130.83" from="31780229" to="222665295#0" departLane="best" type="bus_bus"/>
    <trip id="bus213" depart="131.44" from="401998294" to="263153965" departLane="best" type="bus_bus"/>
    <trip id="bus214" depart="132.06" from="1447223676#0" to="-259614543#0" departLane="best" type="bus_bus"/>
    <trip id="bus215" depart="132.68" from="-260707335#1" to="25400992#1" departLane="best" type="bus_bus"/>
    <trip id="bus216" depart="133.30" from="260801162" to="204135702" departLane="best" type="bus_bus" departSpeed="max"/>
    <trip id="bus217" depart="133.91" from="25113505#3" to="-263155107" departLane="best" type="bus_bus"/>
    <trip id="bus218" depart="134.53" from="-207257118#0" to="-299593518#0" departLane="best" type="bus_bus"/>
    <trip id="bus219" depart="135.15" from="-298977074#0" to="-351309804#3" departLane="best" type="bus_bus"/>
    <trip id="bus220" depart="135.76" from="194272481#1" to="-25094084#0" departLane="best" type="bus_bus"/>
    <trip id="bus221" depart="136.38" from="-25856531#7" to="25534010#7" departLane="best" type="bus_bus"/>
    <trip id="bus222" depart="137.00" from="25473771" to="-172536126#0" departLane="best" type="bus_bus" departSpeed="max"/>
    <trip id="bus223" depart="137.62" from="-68257676#1" to="221360827" departLane="best" type="bus_bus" departSpeed="max"/>
    <trip id="bus224" depart="138.23" from="-84636487#1" to="-25440566#1" departLane="best" type="bus_bus"/>
    <trip id="bus225" depart="138.85" from="1038927907#1" to="418146498" departLane="best" type="bus_bus"/>
    <trip id="bus226" depart="139.47" from="222527090#0" to="25534068#1" departLane="best" type="bus_bus"/>
    <trip id="bus227" depart="140.08" from="360167609#2" to="298981051#2" departLane="best" type="bus_bus"/>
    <trip id="bus228" depart="140.70" from="-483477830" to="-109789190#0" departLane="best" type="bus_bus" departSpeed="max"/>
    <trip id="bus229" depart="141.32" from="353331220" to="64270500" departLane="best" type="bus_bus"/>
    <trip id="bus230" depart="141.94" from="1031710065" to="263306459#2" departLane="best" type="bus_bus"/>
    <trip id="bus231" depart="142.55" from="194755967#0" to="25146681#2" departLane="best" type="bus_bus"/>
    <trip id="bus232" depart="143.17" from="-25534123" to="-25473951#0" departLane="best" type="bus_bus"/>
    <trip id="bus233" depart="143.79" from="1164501205" to="-1362747236" departLane="best" type="bus_bus" departSpeed="max"/>
    <trip id="bus234" depart="144.40" from="-363244240#1" to="25474507#1" departLane="best" type="bus_bus" departSpeed="max"/>
    <trip id="bus235" depart="145.02" from="-659828975#1" to="-25146689#0" departLane="best" type="bus_bus"/>
    <trip id="bus236" depart="145.64" from="1344685747" to="-226092030#1" departLane="best" type="bus_bus"/>
    <trip id="bus237" depart="146.26" from="25112794" to="-1328780404" departLane="best" type="bus_bus" departSpeed="max"/>
    <trip id="bus238" depart="146.87" from="-63522992" to="24855883" departLane="best" type="bus_bus"/>
    <trip id="bus239" depart="147.49" from="-1328780405" to="25401151#2" departLane="best" type="bus_bus"/>
    <trip id="bus240" depart="148.11" from="-25146677#1" to="1451247464#8" departLane="best" type="bus_bus" departSpeed="max"/>
    <trip id="bus241" depart="148.72" from="-172380101#2" to="-63523027#1" departLane="best" type="bus_bus" departSpeed="max"/>
    <trip id="bus242" depart="149.34" from="-25508805#2" to="-362887052" departLane="best" type="bus_bus" departSpeed="max"/>
    <trip id="bus243" depart="149.96" from="260707335#6" to="-63523027#1" departLane="best" type="bus_bus"/>
    <trip id="bus244" depart="150.57" from="258585119#1" to="342407719#1" departLane="best" type="bus_bus"/>
    <trip id="bus245" depart="151.19" from="-260797486#4" to="-194272447#0" departLane="best" type="bus_bus" departSpeed="max"/>
    <trip id="bus246" depart="151.81" from="-1199254411" to="221252051#2" departLane="best" type="bus_bus"/>
    <trip id="bus247" depart="152.43" from="999291610" to="-418167125#0" departLane="best" type="bus_bus"/>
    <trip id="bus248" depart="153.04" from="25146700#0" to="305656563" departLane="best" type="bus_bus" departSpeed="max"/>
    <trip id="bus249" depart="153.66" from="25215031#3" to="266418749" departLane="best" type="bus_bus"/>
    <trip id="bus250" depart="154.28" from="63523005" to="-25401335#1" departLane="best" type="bus_bus" departSpeed="max"/>
    <trip id="bus251" depart="154.89" from="-1200831592" to="-25114557#5" departLane="best" type="bus_bus"/>
    <trip id="bus252" depart="155.51" from="-25114563" to="25473921#3" departLane="best" type="bus_bus" departSpeed="max"/>
    <trip id="bus253" depart="156.13" from="215457449" to="-25473930#1" departLane="best" type="bus_bus" departSpeed="max"/>
    <trip id="bus254" depart="156.75" from="25440741" to="298985986#1" departLane="best" type="bus_bus"/>
    <trip id="bus255" depart="157.36" from="-25401139#2" to="25146689#1" departLane="best" type="bus_bus"/>