<?xml version="1.0" encoding="UTF-8"?>

<!-- generated on 2026-02-15 19:13:30.613737 by Eclipse SUMO osmWebWizard.py v1_26_0+0000-fa7df22d7f1
<configuration>
    <net-file value="C:\Users\sebas\2026-02-15-18-21-36\2026-02-15-18-31-42\osm.net.xml.gz"/>
    <output-trip-file value="C:\Users\sebas\2026-02-15-18-21-36\2026-02-15-18-31-42\osm.truck.trips.xml"/>
    <route-file value="C:\Users\sebas\2026-02-15-18-21-36\2026-02-15-18-31-42\osm.truck.rou.xml"/>
    <prefix value="truck"/>
    <trip-attributes value="departLane=&quot;best&quot;"/>
    <fringe-start-attributes value="departSpeed=&quot;max&quot;"/>
    <vehicle-class value="truck"/>
    <fringe-factor value="5"/>
    <edge-permission value="truck"/>
    <via-edge-types value="highway.motorway,highway.motorway_link,highway.trunk_link,highway.primary_link,highway.secondary_link,highway.tertiary_link"/>
    <seed value="45"/>
    <min-distance value="600.0"/>
    <min-distance.fringe value="10.0"/>
    <remove-loops value="True"/>
    <insertion-density value="22.0"/>
</configuration>
-->

<routes xmlns:xsi="http://www.w3.org/2001/XMLSchema-instance" xsi:noNamespaceSchemaLocation="http://sumo.dlr.de/xsd/routes_file.xsd">
    <vType id="truck_truck" vClass="truck"/>
    <trip id="truck0" depart="0.00" from="-298977074#0" to="172376529#1" departLane="best" type="truck_truck"/>
    <trip id="truck1" depart="0.20" from="-218402994#1" to="-383428091" departLane="best" type="truck_truck" departSpeed="max"/>
    <trip id="truck2" depart="0.39" from="-194757680#1" to="-1167991360" departLane="best" type="truck_truck"/>
    <trip id="truck3" depart="0.59" from="-30984842#1" to="-221356540#1" departLane="best" type="truck_truck" departSpeed="max"/>
    <trip id="truck4" depart="0.79" from="-323111248#2" to="263153965" departLane="best" type="truck_truck" departSpeed="max"/>
    <trip id="truck5" depart="0.98" from="-16158612#0" to="25347814#5" departLane="best" type="truck_truck"/>
    <trip id="truck6" depart="1.18" from="-25115501#7" to="31437744#0" departLane="best" type="truck_truck"/>
    <trip id="truck7" depart="1.37" from="25534170#2" to="-25473705#0" departLane="best" type="truck_truck"/>
    <trip id="truck8" depart="1.57" from="34006632" to="258585126#0" departLane="best" type="truck_truck"/>
    <trip id="truck9" depart="1.77" from="-202303749" to="1054098546" departLane="best" type="truck_truck"/>
    <trip id="truck10" depart="1.96" from="25458069" to="472842696#1" departLane="best" type="truck_truck" departSpeed="max"/>
    <trip id="truck11" depart="2.16" from="263157516#1" to="657749174#1" departLane="best" type="truck_truck"/>
    <trip id="truck12" depart="2.36" from="-221358315#6" to="-194755967#2" departLane="best" type="truck_truck"/>
    <trip id="truck13" depart="2.55" from="258583056#2" to="-324541011#1" departLane="best" type="truck_truck"/>
    <trip id="truck14" depart="2.75" from="-52168350#0" to="380676870#2" departLane="best" type="truck_truck"/>
    <trip id="truck15" depart="2.95" from="258365833" to="25458160#1" departLane="best" type="truck_truck"/>
    <trip id="truck16" depart="3.14" from="363397508#1" to="260797486#1" departLane="best" type="truck_truck"/>
    <trip id="truck17" depart="3.34" from="31008064#1" to="25401160#1" departLane="best" type="truck_truck"/>
    <trip id="truck18" depart="3.53" from="226092036" to="-172472936" departLane="best" type="truck_truck" departSpeed="max"/>
    <trip id="truck19" depart="3.73" from="418167128" to="421321955" departLane="best" type="truck_truck"/>
    <trip id="truck20" depart="3.93" from="-394706182#1" to="25348700" departLane="best" type="truck_truck"/>
    <trip id="truck21" depart="4.12" from="-1197108947#1" to="172472688#2" departLane="best" type="truck_truck"/>
    <trip id="truck22" depart="4.32" from="25112802#3" to="-310096358#1" departLane="best" type="truck_truck"/>
    <trip id="truck23" depart="4.52" from="-748561932" to="343333132" departLane="best" type="truck_truck" departSpeed="max"/>
    <trip id="truck24" depart="4.71" from="-25215031#2" to="13774544#5" departLane="best" type="truck_truck"/>
    <trip id="truck25" depart="4.91" from="-221204804#0" to="-655655655#4" departLane="best" type="truck_truck"/>
    <trip id="truck26" depart="5.11" from="378696128#5" to="25266064#2" departLane="best" type="truck_truck"/>
    <trip id="truck27" depart="5.30" from="-1363038551" to="363834613" departLane="best" type="truck_truck" departSpeed="max"/>
    <trip id="truck28" depart="5.50" from="25326998" to="203268220#2" departLane="best" type="truck_truck"/>
    <trip id="truck29" depart="5.70" from="-31430398#1" to="-31734210#0" departLane="best" type="truck_truck"/>
    <trip id="truck30" depart="5.89" from="-25440591#1" to="25342860#1" departLane="best" type="truck_truck" departSpeed="max"/>
    <trip id="truck31" depart="6.09" from="-172376532#5" to="572769823#1" departLane="best" type="truck_truck"/>
    <trip id="truck32" depart="6.28" from="-226090190#0" to="25347747#1" departLane="best" type="truck_truck"/>
    <trip id="truck33" depart="6.48" from="221232880#3" to="-483477827#0" departLane="best" type="truck_truck"/>
    <trip id="truck34" depart="6.68" from="-303558339#2" to="1205256660#4" departLane="best" type="truck_truck"/>
    <trip id="truck35" depart="6.87" from="-361078914" to="680858784#1" departLane="best" type="truck_truck"/>
    <trip id="truck36" depart="7.07" from="25115796#0" to="202304531" departLane="best" type="truck_truck"/>
    <trip id="truck37" depart="7.27" from="25342859#0" to="172450420" departLane="best" type="truck_truck"/>
    <trip id="truck38" depart="7.46" from="-25316179#7" to="-122402608#0" departLane="best" type="truck_truck"/>
    <trip id="truck39" depart="7.66" from="68310467" to="360601648" departLane="best" type="truck_truck" departSpeed="max"/>
    <trip id="truck40" depart="7.86" from="-221360965" to="25215034#8" departLane="best" type="truck_truck"/>
    <trip id="truck41" depart="8.05" from="26697478" to="415604824" departLane="best" type="truck_truck"/>
    <trip id="truck42" depart="8.25" from="-178404560" to="-24619899#2" departLane="best" type="truck_truck" departSpeed="max"/>
    <trip id="truck43" depart="8.44" from="-59677108#2" to="25146681#2" departLane="best" type="truck_truck"/>
    <trip id="truck44" depart="8.64" from="-219620179" to="25534068#5" departLane="best" type="truck_truck" departSpeed="max"/>
    <trip id="truck45" depart="8.84" from="258586051#0" to="1309809532" departLane="best" type="truck_truck"/>
    <trip id="truck46" depart="9.03" from="31822018" to="-652322207#2" departLane="best" type="truck_truck" departSpeed="max"/>
    <trip id="truck47" depart="9.23" from="-659433946" to="-63523006" departLane="best" type="truck_truck" departSpeed="max"/>
    <trip id="truck48" depart="9.43" from="25473930#1" to="388535324#2" departLane="best" type="truck_truck"/>
    <trip id="truck49" depart="9.62" from="-194757680#0" to="25114562" departLane="best" type="truck_truck"/>
    <trip id="truck50" depart="9.82" from="31822619#0" to="25533259#1" departLane="best" type="truck_truck" departSpeed="max"/>
    <trip id="truck51" depart="10.02" from="-258577333" to="-49068191#1" departLane="best" type="truck_truck"/>
    <trip id="truck52" depart="10.21" from="383269250#1" to="-25473796#0" departLane="best" type="truck_truck"/>
    <trip id="truck53" depart="10.41" from="64624249" to="-696485817#1" departLane="best" type="truck_truck"/>
    <trip id="truck54" depart="10.60" from="172538009" to="258343327#4" departLane="best" type="truck_truck" departSpeed="max"/>
    <trip id="truck55" depart="10.80" from="25401136" to="25114563" departLane="best" type="truck_truck"/>
    <trip id="truck56" depart="11.00" from="363397508#0" to="25401114#1" departLane="best" type="truck_truck"/>
    <trip id="truck57" depart="11.19" from="444435787" to="25401365#2" departLane="best" type="truck_truck" departSpeed="max"/>
    <trip id="truck58" depart="11.39" from="222823974" to="-172472687" departLane="best" type="truck_truck" departSpeed="max"/>
    <trip id="truck59" depart="11.59" from="418010642" to="-25474536" departLane="best" type="truck_truck"/>
    <trip id="truck60" depart="11.78" from="-25534258#1" to="-172436793#1" departLane="best" type="truck_truck"/>
    <trip id="truck61" depart="11.98" from="25112787" to="-557496008" departLane="best" type="truck_truck" departSpeed="max"/>
    <trip id="truck62" depart="12.18" from="25266061#0" to="31823375#1" departLane="best" type="truck_truck"/>
    <trip id="truck63" depart="12.37" from="572220182#0" to="31744337#1" departLane="best" type="truck_truck"/>
    <trip id="truck64" depart="12.57" from="318883605#0" to="-64624269#0" departLane="best" type="truck_truck" departSpeed="max"/>
    <trip id="truck65" depart="12.76" from="-172441842#1" to="299887260#2" departLane="best" type="truck_truck" departSpeed="max"/>
    <trip id="truck66" depart="12.96" from="84636487#1" to="1451976445#6" departLane="best" type="truck_truck"/>
    <trip id="truck67" depart="13.16" from="407098966#1" to="25091142#0" departLane="best" type="truck_truck"/>
    <trip id="truck68" depart="13.35" from="-49290003#3" to="342409645" departLane="best" type="truck_truck"/>
    <trip id="truck69" depart="13.55" from="-172540218#1" to="-483477827#5" departLane="best" type="truck_truck" departSpeed="max"/>
    <trip id="truck70" depart="13.75" from="25439739#4" to="-194272447#0" departLane="best" type="truck_truck"/>
    <trip id="truck71" depart="13.94" from="199582048" to="-67063630" departLane="best" type="truck_truck" departSpeed="max"/>
    <trip id="truck72" depart="14.14" from="-25534108#1" to="1043593931#1" departLane="best" type="truck_truck" departSpeed="max"/>
    <trip id="truck73" depart="14.34" from="258343325" to="25473948#0" departLane="best" type="truck_truck"/>
    <trip id="truck74" depart="14.53" from="223538733" to="300888462#0" departLane="best" type="truck_truck" departSpeed="max"/>
    <trip id="truck75" depart="14.73" from="-70186091" to="25112788#1" departLane="best" type="truck_truck"/>
    <trip id="truck76" depart="14.93" from="-222823972#1" to="25440741" departLane="best" type="truck_truck"/>
    <trip id="truck77" depart="15.12" from="25347814#5" to="25348686#1" departLane="best" type="truck_truck"/>
    <trip id="truck78" depart="15.32" from="299599096#4" to="72648734#1" departLane="best" type="truck_truck"/>
    <trip id="truck79" depart="15.51" from="25474592" to="698899190#27" departLane="best" type="truck_truck" departSpeed="max"/>
    <trip id="truck80" depart="15.71" from="25266066" to="-263158839#0" departLane="best" type="truck_truck" departSpeed="max"/>
    <trip id="truck81" depart="15.91" from="363241928" to="25473928#1" departLane="best" type="truck_truck" departSpeed="max"/>
    <trip id="truck82" depart="16.10" from="25113506#0" to="-25112794" departLane="best" type="truck_truck"/>
    <trip id="truck83" depart="16.30" from="218402994#0" to="-391632268#1" departLane="best" type="truck_truck" departSpeed="max"/>
    <trip id="truck84" depart="16.50" from="221233671#0" to="473664753#1" departLane="best" type="truck_truck"/>
    <trip id="truck85" depart="16.69" from="-483477833" to="-1198478320" departLane="best" type="truck_truck"/>
    <trip id="truck86" depart="16.89" from="32207384#0" to="-172430234" departLane="best" type="truck_truck"/>
    <trip id="truck87" depart="17.09" from="-713684973#0" to="-384704766#1" departLane="best" type="truck_truck"/>
    <trip id="truck88" depart="17.28" from="1196643901" to="25349409" departLane="best" type="truck_truck"/>
    <trip id="truck89" depart="17.48" from="172427463#0" to="-260806530#0" departLane="best" type="truck_truck" departSpeed="max"/>
    <trip id="truck90" depart="17.67" from="364015969" to="31822601#4" departLane="best" type="truck_truck"/>
    <trip id="truck91" depart="17.87" from="395160798" to="-222823987" departLane="best" type="truck_truck"/>
    <trip id="truck92" depart="18.07" from="193128810" to="-25519478#0" departLane="best" type="truck_truck" departSpeed="max"/>
    <trip id="truck93" depart="18.26" from="-222527090#0" to="483477829#0" departLane="best" type="truck_truck"/>
    <trip id="truck94" depart="18.46" from="25342839" to="13774626#8" departLane="best" type="truck_truck"/>
    <trip id="truck95" depart="18.66" from="260801162" to="362875594#1" departLane="best" type="truck_truck" departSpeed="max"/>
    <trip id="truck96" depart="18.85" from="1328780405" to="-220077155#0" departLane="best" type="truck_truck"/>
    <trip id="truck97" depart="19.05" from="1022979425" to="-25401160#0" departLane="best" type="truck_truck" departSpeed="max"/>
    <trip id="truck98" depart="19.25" from="172538009" to="366207797#0" departLane="best" type="truck_truck" departSpeed="max"/>
    <trip id="truck99" depart="19.44" from="49907764#0" to="-25097123#4" departLane="best" type="truck_truck"/>
    <trip id="truck100" depart="19.64" from="-25111949" to="786001766#0" departLane="best" type="truck_truck"/>
    <trip id="truck101" depart="19.83" from="172540197#0" to="25373507#2" departLane="best" type="truck_truck" departSpeed="max"/>
    <trip id="truck102" depart="20.03" from="25439690#3" to="1138574867" departLane="best" type="truck_truck"/>
    <trip id="truck103" depart="20.23" from="-63523002#2" to="372618225" departLane="best" type="truck_truck"/>
    <trip id="truck104" depart="20.42" from="25112802#7" to="-122402608#0" departLane="best" type="truck_truck"/>
    <trip id="truck105" depart="20.62" from="226092038" to="263157988#0" departLane="best" type="truck_truck"/>
    <trip id="truck106" depart="20.82" from="-378715889#1" to="-49369840#2" departLane="best" type="truck_truck"/>
    <trip id="truck107" depart="21.01" from="-366207735#3" to="-310096358#1" departLane="best" type="truck_truck"/>
    <trip id="truck108" depart="21.21" from="63523004#0" to="380676870#0" departLane="best" type="truck_truck" departSpeed="max"/>
    <trip id="truck109" depart="21.41" from="194755944" to="-17153173#0" departLane="best" type="truck_truck" departSpeed="max"/>
    <trip id="truck110" depart="21.60" from="483477827#4" to="31780248" departLane="best" type="truck_truck"/>
    <trip id="truck111" depart="21.80" from="25115477#3" to="659433946" departLane="best" type="truck_truck"/>
    <trip id="truck112" depart="21.99" from="258586123#3" to="25146691#0" departLane="best" type="truck_truck"/>
    <trip id="truck113" depart="22.19" from="-363397510#1" to="25342865#1" departLane="best" type="truck_truck"/>
    <trip id="truck114" depart="22.39" from="1038938828" to="-25316179#5" departLane="best" type="truck_truck"/>
    <trip id="truck115" depart="22.58" from="-25373494#1" to="-219620346#0" departLane="best" type="truck_truck"/>
    <trip id="truck116" depart="22.78" from="25401169#0" to="-63523002#2" departLane="best" type="truck_truck"/>
    <trip id="truck117" depart="22.98" from="769463984" to="444435791#1" departLane="best" type="truck_truck"/>
    <trip id="truck118" depart="23.17" from="-310096358#10" to="-207257118#2" departLane="best" type="truck_truck"/>
    <trip id="truck119" depart="23.37" from="-418422352" to="298492231#0" departLane="best" type="truck_truck"/>
    <trip id="truck120" depart="23.57" from="556841680" to="1305344772#2" departLane="best" type="truck_truck"/>
    <trip id="truck121" depart="23.76" from="1196913412" to="25342836#3" departLane="best" type="truck_truck"/>
    <trip id="truck122" depart="23.96" from="324540717#0" to="25534381#2" departLane="best" type="truck_truck"/>
    <trip id="truck123" depart="24.15" from="-221360827" to="-222390839#2" departLane="best" type="truck_truck" departSpeed="max"/>
    <trip id="truck124" depart="24.35" from="56317806#0" to="-31337071#1" departLane="best" type="truck_truck"/>
    <trip id="truck125" depart="24.55" from="-198399079#4" to="-25114545#0" departLane="best" type="truck_truck"/>
    <trip id="truck126" depart="24.74" from="-1201572357" to="221204804#0" departLane="best" type="truck_truck" departSpeed="max"/>
    <trip id="truck127" depart="24.94" from="25114573#0" to="-298492231#3" departLane="best" type="truck_truck"/>
    <trip id="truck128" depart="25.14" from="-1199246165" to="-16813289#1" departLane="best" type="truck_truck"/>
    <trip id="truck129" depart="25.33" from="25401299#3" to="-1025593426#4" departLane="best" type="truck_truck"/>
    <trip id="truck130" depart="25.53" from="-258585134#4" to="1320232908" departLane="best" type="truck_truck"/>
    <trip id="truck131" depart="25.73" from="-710817976#1" to="491698190" departLane="best" type="truck_truck"/>
    <trip id="truck132" depart="25.92" from="509354019#1" to="172536126#2" departLane="best" type="truck_truck"/>
    <trip id="truck133" depart="26.12" from="25097130#2" to="-445083866#0" departLane="best" type="truck_truck"/>
    <trip id="truck134" depart="26.32" from="25115501#10" to="-172472687" departLane="best" type="truck_truck"/>
    <trip id="truck135" depart="26.51" from="-25473705#1" to="324540756#1" departLane="best" type="truck_truck" departSpeed="max"/>
    <trip id="truck136" depart="26.71" from="1225355084" to="172450421#0" departLane="best" type="truck_truck" departSpeed="max"/>
    <trip id="truck137" depart="26.90" from="31780246#0" to="25401368#1" departLane="best" type="truck_truck" departSpeed="max"/>
    <trip id="truck138" depart="27.10" from="-25401264#7" to="152816693" departLane="best" type="truck_truck"/>
    <trip id="truck139" depart="27.30" from="359889065#1" to="-418010635#1" departLane="best" type="truck_truck"/>
    <trip id="truck140" depart="27.49" from="64183360" to="-25401160#0" departLane="best" type="truck_truck"/>
    <trip id="truck141" depart="27.69" from="-63523063#1" to="-25401016#1" departLane="best" type="truck_truck" departSpeed="max"/>
    <trip id="truck142" depart="27.89" from="-305945657#0" to="-25473951#1" departLane="best" type="truck_truck"/>
    <trip id="truck143" depart="28.08" from="25266061#0" to="263307322" departLane="best" type="truck_truck"/>
    <trip id="truck144" depart="28.28" from="366207746#4" to="-25097108#4" departLane="best" type="truck_truck"/>
    <trip id="truck145" depart="28.48" from="85547297" to="25508805#0" departLane="best" type="truck_truck"/>
    <trip id="truck146" depart="28.67" from="-286637226#1" to="25474287" departLane="best" type="truck_truck" departSpeed="max"/>
    <trip id="truck147" depart="28.87" from="25097123#2" to="-418199411" departLane="best" type="truck_truck"/>
    <trip id="truck148" depart="29.06" from="-299595013#1" to="-194381735#3" departLane="best" type="truck_truck"/>
    <trip id="truck149" depart="29.26" from="-25534010#11" to="363399203" departLane="best" type="truck_truck" departSpeed="max"/>
    <trip id="truck150" depart="29.46" from="-439072434" to="25401379" departLane="best" type="truck_truck"/>
    <trip id="truck151" depart="29.65" from="1198133877" to="-25519400#0" departLane="best" type="truck_truck"/>
    <trip id="truck152" depart="29.85" from="1137261349#3" to="-25474382#0" departLane="best" type="truck_truck"/>
    <trip id="truck153" depart="30.05" from="108853039#4" to="-25401148#2" departLane="best" type="truck_truck"/>
    <trip id="truck154" depart="30.24" from="-25114795" to="31430396#1" departLane="best" type="truck_truck"/>
    <trip id="truck155" depart="30.44" from="-323498416" to="25508549#2" departLane="best" type="truck_truck" departSpeed="max"/>
    <trip id="truck156" depart="30.64" from="483477827#5" to="440619829#4" departLane="best" type="truck_truck"/>
    <trip id="truck157" depart="30.83" from="31822614#0" to="172460165#1" departLane="best" type="truck_truck"/>
    <trip id="truck158" depart="31.03" from="172535132#1" to="-1198085730" departLane="best" type="truck_truck"/>
    <trip id="truck159" depart="31.22" from="25399395#0" to="17413173#1" departLane="best" type="truck_truck" departSpeed="max"/>
    <trip id="truck160" depart="31.42" from="-366207714#2" to="363241640" departLane="best" type="truck_truck"/>
    <trip id="truck161" depart="31.62" from="258585119#0" to="31023054#7" departLane="best" type="truck_truck"/>
    <trip id="truck162" depart="31.81" from="-366207709#3" to="194381734#1" departLane="best" type="truck_truck"/>
    <trip id="truck163" depart="32.01" from="263158839#2" to="418167130#2" departLane="best" type="truck_truck"/>
    <trip id="truck164" depart="32.21" from="16181738#1" to="258585120" departLane="best" type="truck_truck"/>
    <trip id="truck165" depart="32.40" from="218402976" to="-25474507#1" departLane="best" type="truck_truck" departSpeed="max"/>
    <trip id="truck166" depart="32.60" from="366207712" to="221256064#12" departLane="best" type="truck_truck"/>
    <trip id="truck167" depart="32.80" from="-25401315#2" to="25112789" departLane="best" type="truck_truck" departSpeed="max"/>
    <trip id="truck168" depart="32.99" from="360609468" to="-25115488#0" departLane="best" type="truck_truck"/>
    <trip id="truck169" depart="33.19" from="-25400992#0" to="25373529" departLane="best" type="truck_truck"/>
    <trip id="truck170" depart="33.38" from="-25146683#1" to="298496222#0" departLane="best" type="truck_truck" departSpeed="max"/>
    <trip id="truck171" depart="33.58" from="25094072#0" to="17150142" departLane="best" type="truck_truck"/>
    <trip id="truck172" depart="33.78" from="1201464010#0" to="698899190#10" departLane="best" type="truck_truck"/>
    <trip id="truck173" depart="33.97" from="-318881020" to="25094061#0" departLane="best" type="truck_truck" departSpeed="max"/>
    <trip id="truck174" depart="34.17" from="1140818046#2" to="653983878#0" departLane="best" type="truck_truck"/>
    <trip id="truck175" depart="34.37" from="-483477831#1" to="-108852986" departLane="best" type="truck_truck" departSpeed="max"/>
    <trip id="truck176" depart="34.56" from="1197168632" to="222390839#3" departLane="best" type="truck_truck"/>
    <trip id="truck177" depart="34.76" from="383412114" to="-25534170#0" departLane="best" type="truck_truck"/>
    <trip id="truck178" depart="34.96" from="25114561#1" to="342606619#0" departLane="best" type="truck_truck"/>
    <trip id="truck179" depart="35.15" from="383428082" to="31780224" departLane="best" type="truck_truck"/>
    <trip id="truck180" depart="35.35" from="25342843#0" to="1179658032#2" departLane="best" type="truck_truck"/>
    <trip id="truck181" depart="35.55" from="472842696#3" to="263101377#1" departLane="best" type="truck_truck"/>
    <trip id="truck182" depart="35.74" from="1137261351#1" to="557144735#2" departLane="best" type="truck_truck"/>
    <trip id="truck183" depart="35.94" from="63523004#4" to="59677109#2" departLane="best" type="truck_truck"/>
    <trip id="truck184" depart="36.13" from="-84636487#3" to="1025593426#3" departLane="best" type="truck_truck"/>
    <trip id="truck185" depart="36.33" from="705815117" to="-1341689291" departLane="best" type="truck_truck"/>
    <trip id="truck186" depart="36.53" from="628932921#4" to="324540756#3" departLane="best" type="truck_truck"/>
    <trip id="truck187" depart="36.72" from="-25473744#1" to="25373470#2" departLane="best" type="truck_truck"/>
    <trip id="truck188" depart="36.92" from="-483477827#9" to="263158399#5" departLane="best" type="truck_truck" departSpeed="max"/>
    <trip id="truck189" depart="37.12" from="452355841" to="26428113#4" departLane="best" type="truck_truck" departSpeed="max"/>
    <trip id="truck190" depart="37.31" from="319181218" to="-298492231#0" departLane="best" type="truck_truck" departSpeed="max"/>
    <trip id="truck191" depart="37.51" from="172376525" to="16158888" departLane="best" type="truck_truck"/>
    <trip id="truck192" depart="37.71" from="557144735#2" to="-25473758#1" departLane="best" type="truck_truck"/>
    <trip id="truck193" depart="37.90" from="25474521#0" to="25508482#3" departLane="best" type="truck_truck"/>
    <trip id="truck194" depart="38.10" from="-388535324#1" to="509354019#3" departLane="best" type="truck_truck"/>
    <trip id="truck195" depart="38.29" from="415556265#0" to="-258586048#0" departLane="best" type="truck_truck" departSpeed="max"/>
    <trip id="truck196" depart="38.49" from="-355833264" to="25401111#3" departLane="best" type="truck_truck" departSpeed="max"/>
    <trip id="truck197" depart="38.69" from="-25115477#0" to="-298981555#0" departLane="best" type="truck_truck"/>
    <trip id="truck198" depart="38.88" from="16814426#0" to="-206524640" departLane="best" type="truck_truck"/>
    <trip id="truck199" depart="39.08" from="318881269#1" to="221360828" departLane="best" type="truck_truck"/>
    <trip id="truck200" depart="39.28" from="25315720#0" to="-25534106#1" departLane="best" type="truck_truck"/>
    <trip id="truck201" depart="39.47" from="25401134#0" to="-372586346#1" departLane="best" type="truck_truck"/>
    <trip id="truck202" depart="39.67" from="717554936#8" to="-172538016" departLane="best" type="truck_truck"/>
    <trip id="truck203" depart="39.87" from="-25115501#0" to="-25094059#2" departLane="best" type="truck_truck"/>
    <trip id="truck204" depart="40.06" from="259614543#0" to="222823971#1" departLane="best" type="truck_truck" departSpeed="max"/>
    <trip id="truck205" depart="40.26" from="25439701#0" to="-25316181#4" departLane="best" type="truck_truck" departSpeed="max"/>
    <trip id="truck206" depart="40.45" from="25115491#0" to="299887271#1" departLane="best" type="truck_truck" departSpeed="max"/>
    <trip id="truck207" depart="40.65" from="-220784329#3" to="-25342837#0" departLane="best" type="truck_truck"/>
    <trip id="truck208" depart="40.85" from="1227248475" to="-362886525#5" departLane="best" type="truck_truck"/>
    <trip id="truck209" depart="41.04" from="324540756#0" to="24630785#0" departLane="best" type="truck_truck"/>
    <trip id="truck210" depart="41.24" from="135050788#6" to="-683392440#1" departLane="best" type="truck_truck"/>
    <trip id="truck211" depart="41.44" from="-25401095#2" to="-25373494#0" departLane="best" type="truck_truck"/>
    <trip id="truck212" depart="41.63" from="-298985986#3" to="-117849331#2" departLane="best" type="truck_truck"/>
    <trip id="truck213" depart="41.83" from="-25400992#1" to="25114553#0" departLane="best" type="truck_truck" departSpeed="max"/>
    <trip id="truck214" depart="42.03" from="172450757#1" to="172460165#1" departLane="best" type="truck_truck"/>
    <trip id="truck215" depart="42.22" from="194381761#4" to="25111167#3" departLane="best" type="truck_truck"/>
    <trip id="truck216" depart="42.42" from="985287464" to="204140821#0" departLane="best" type="truck_truck" departSpeed="max"/>
    <trip id="truck217" depart="42.61" from="260819064" to="-31744345#1" departLane="best" type="truck_truck" departSpeed="max"/>
    <trip id="truck218" depart="42.81" from="304582438#0" to="221224114#3" departLane="best" type="truck_truck"/>
    <trip id="truck219" depart="43.01" from="360610209#1" to="652322208#1" departLane="best" type="truck_truck"/>
    <trip id="truck220" depart="43.20" from="-25474288" to="406862927" departLane="best" type="truck_truck"/>
    <trip id="truck221" depart="43.40" from="25114570#0" to="415556258" departLane="best" type="truck_truck" departSpeed="max"/>
    <trip id="truck222" depart="43.60" from="-172376524" to="355833264" departLane="best" type="truck_truck" departSpeed="max"/>
    <trip id="truck223" depart="43.79" from="258365835" to="363244240#1" departLane="best" type="truck_truck"/>
    <trip id="truck224" depart="43.99" from="25215028#0" to="-418453715" departLane="best" type="truck_truck"/>
    <trip id="truck225" depart="44.19" from="194755961" to="342629482#0" departLane="best" type="truck_truck"/>
    <trip id="truck226" depart="44.38" from="-47138128#2" to="80309577" departLane="best" type="truck_truck" departSpeed="max"/>
    <trip id="truck227" depart="44.58" from="389754235" to="260799340#1" departLane="best" type="truck_truck"/>
    <trip id="truck228" depart="44.78" from="358285758#0" to="-1198064699" departLane="best" type="truck_truck"/>
    <trip id="truck229" depart="44.97" from="25112794" to="418167127#2" departLane="best" type="truck_truck" departSpeed="max"/>
    <trip id="truck230" depart="45.17" from="-366207709#3" to="25146687#1" departLane="best" type="truck_truck"/>
    <trip id="truck231" depart="45.36" from="-222541162#1" to="298488305#10" departLane="best" type="truck_truck" departSpeed="max"/>
    <trip id="truck232" depart="45.56" from="-25534136#1" to="717554936#9" departLane="best" type="truck_truck"/>
    <trip id="truck233" depart="45.76" from="25094082#1" to="-172459467#0" departLane="best" type="truck_truck"/>
    <trip id="truck234" depart="45.95" from="187819360" to="-222823984" departLane="best" type="truck_truck" departSpeed="max"/>
    <trip id="truck235" depart="46.15" from="-355833264" to="25473921#2" departLane="best" type="truck_truck" departSpeed="max"/>
    <trip id="truck236" depart="46.35" from="-220262062#1" to="342401467" departLane="best" type="truck_truck"/>
    <trip id="truck237" depart="46.54" from="25401307#7" to="25474379#0" departLane="best" type="truck_truck"/>
    <trip id="truck238" depart="46.74" from="-353331013#1" to="-220260874#0" departLane="best" type="truck_truck"/>
    <trip id="truck239" depart="46.94" from="186160660" to="25473913" departLane="best" type="truck_truck" departSpeed="max"/>
    <trip id="truck240" depart="47.13" from="597539556#1" to="25440612#1" departLane="best" type="truck_truck"/>
    <trip id="truck241" depart="47.33" from="258429985" to="1451976445#6" departLane="best" type="truck_truck" departSpeed="max"/>
    <trip id="truck242" depart="47.52" from="-258343331#0" to="221252047#1" departLane="best" type="truck_truck"/>
    <trip id="truck243" depart="47.72" from="509354019#5" to="226092035#1" departLane="best" type="truck_truck"/>