<?xml version="1.0" encoding="UTF-8"?>

<!-- generated on 2026-02-15T18:32:15.819711-06:00 by Eclipse SUMO netconvert 1.26.0
<netconvertConfiguration xmlns:xsi="http://www.w3.org/2001/XMLSchema-instance" xsi:noNamespaceSchemaLocation="http://sumo.dlr.de/xsd/netconvertConfiguration.xsd">

    <input>
        <type-files value="${SUMO_HOME}\data\typemap\osmNetconvert.typ.xml,${SUMO_HOME}\data\typemap\osmNetconvertAerialway.typ.xml"/>
        <osm-files value="osm_bbox.osm.xml.gz"/>
    </input>

    <output>
        <output-file value="osm.net.xml.gz"/>
        <output.street-names value="true"/>
        <output.original-names value="true"/>
        <ptstop-output value="osm_stops.add.xml"/>
        <ptline-output value="osm_ptlines.xml"/>
        <ptline-clean-up value="true"/>
    </output>

    <projection>
        <proj.utm value="true"/>
    </projection>

    <processing>
        <geometry.remove value="true"/>
    </processing>

    <tls_building>
        <tls.discard-simple value="true"/>
        <tls.join value="true"/>
        <tls.guess-signals value="true"/>
        <tls.default-type value="actuated"/>
    </tls_building>

    <ramp_guessing>
        <ramps.guess value="true"/>
    </ramp_guessing>

    <edge_removal>
        <keep-edges.by-vclass value="passenger,bus,tram,rail_urban,subway,cable_car,rail"/>
    </edge_removal>

    <junctions>
        <junctions.join value="true"/>
    </junctions>

    <railway>
        <railway.topology.repair value="true"/>
    </railway>

</netconvertConfiguration>
-->

<additional xmlns:xsi="http://www.w3.org/2001/XMLSchema-instance" xsi:noNamespaceSchemaLocation="http://sumo.dlr.de/xsd/additional_file.xsd">
    <busStop id="-278449879" name="Contraloría" lane="-25841648#0_0" startPos="224.00" endPos="424.00" friendlyPos="true">
        <access lane="389745886#1_0" pos="279.40" length="65.40" friendlyPos="1"/>
    </busStop>
    <busStop id="-289555266" name="La Salle" lane="-25841648#0_0" startPos="1161.02" endPos="1361.02" friendlyPos="true"/>
    <busStop id="-4098870372" name="Parada CCG" lane="-25064160#3_0" startPos="27.27" endPos="42.27" friendlyPos="true" lines="142"/>
    <busStop id="-4100624695" name="San José" lane="-549800868_0" startPos="0.00" endPos="5.71" friendlyPos="true" lines="203">
        <access lane="1344685758_0" pos="1.06" length="21.09" friendlyPos="1"/>
        <access lane="30721346#0_0" pos="0.00" length="27.37" friendlyPos="1"/>
        <access lane="549800865_0" pos="57.55" length="32.56" friendlyPos="1"/>
        <access lane="549800867_0" pos="0.00" length="17.26" friendlyPos="1"/>
        <access lane="82877651_0" pos="61.32" length="27.82" friendlyPos="1"/>
    </busStop>
    <busStop id="-4628999924" name="Atlántico" lane="-468564875#0_0" startPos="0.00" endPos="106.06" friendlyPos="true">
        <access lane="260831609_0" pos="39.68" length="74.32" friendlyPos="1"/>
        <access lane="260831616#0_0" pos="0.00" length="74.39" friendlyPos="1"/>
        <access lane="380133292_0" pos="2.83" length="43.59" friendlyPos="1"/>
        <access lane="388500922#0_0" pos="110.19" length="48.48" friendlyPos="1"/>
        <access lane="657749175#0_0" pos="0.00" length="59.05" friendlyPos="1"/>
    </busStop>
    <busStop id="-4629001928" name="Colima" lane="-25549799#0_0" startPos="0.00" endPos="200.00" friendlyPos="true">
        <access lane="-223219193_0" pos="0.00" length="42.74" friendlyPos="1"/>
        <access lane="-319177395#1_0" pos="52.22" length="15.46" friendlyPos="1"/>
        <access lane="223219193_0" pos="39.76" length="38.87" friendlyPos="1"/>
        <access lane="319177395#0_0" pos="20.57" length="20.26" friendlyPos="1"/>
        <access lane="344140363#0_0" pos="0.00" length="90.98" friendlyPos="1"/>
    </busStop>
    <busStop id="-4636012378" name="La Corte" lane="1038934239#0_0" startPos="124.02" endPos="324.02" friendlyPos="true">
        <access lane="-1174311037_0" pos="37.24" length="10.92" friendlyPos="1"/>
        <access lane="1174311037_0" pos="25.35" length="6.12" friendlyPos="1"/>
        <access lane="25401072#0_0" pos="2.79" length="47.25" friendlyPos="1"/>
        <access lane="71075230#10_0" pos="0.00" length="63.55" friendlyPos="1"/>
        <access lane="71075230#9_0" pos="51.91" length="34.89" friendlyPos="1"/>
    </busStop>
    <busStop id="-4636012379" name="Plaza Cleto González Víquez" lane="-440793505#10_0" startPos="0.00" endPos="148.09" friendlyPos="true">
        <access lane="25113486_0" pos="73.84" length="82.02" friendlyPos="1"/>
        <access lane="389987214#0_0" pos="72.22" length="72.16" friendlyPos="1"/>
        <access lane="66040724#0_0" pos="0.00" length="82.22" friendlyPos="1"/>
        <access lane="807603679#0_0" pos="0.00" length="72.52" friendlyPos="1"/>
        <access lane="807603679#1_0" pos="0.00" length="74.71" friendlyPos="1"/>
    </busStop>
    <busStop id="-4636012380" name="Pacífico" lane="-446753979#15_0" startPos="0.00" endPos="200.00" friendlyPos="true">
        <access lane="25373470#4_0" pos="73.20" length="95.90" friendlyPos="1"/>
        <access lane="25373470#5_0" pos="47.83" length="36.63" friendlyPos="1"/>
        <access lane="25373470#8_0" pos="0.00" length="89.68" friendlyPos="1"/>
        <access lane="299887260#2_0" pos="59.72" length="86.06" friendlyPos="1"/>
        <access lane="299887266#0_0" pos="0.00" length="92.11" friendlyPos="1"/>
    </busStop>
    <busStop id="-4636012380@7357187" name="Pacífico" lane="-440793505#0_0" startPos="0.00" endPos="102.75" friendlyPos="true">
        <access lane="25373470#4_0" pos="73.20" length="95.90" friendlyPos="1"/>
        <access lane="25373470#5_0" pos="47.83" length="36.63" friendlyPos="1"/>
        <access lane="25373470#8_0" pos="0.00" length="89.68" friendlyPos="1"/>
        <access lane="299887260#2_0" pos="59.72" length="86.06" friendlyPos="1"/>
        <access lane="299887266#0_0" pos="0.00" length="92.11" friendlyPos="1"/>
    </busStop>
    <busStop id="-4636012381" name="Cuba" lane="-446753979#2_0" startPos="20.25" endPos="220.25" friendlyPos="true">
        <access lane="1179658032#2_0" pos="23.73" length="20.51" friendlyPos="1"/>
        <access lane="383269253#2-AddedOnRampEdge_0" pos="94.51" length="14.93" friendlyPos="1"/>
        <access lane="383269253#2_0" pos="1.84" length="7.04" friendlyPos="1"/>
        <access lane="383269253#3_0" pos="0.00" length="62.40" friendlyPos="1"/>
        <access lane="415556265#0_0" pos="114.70" length="61.87" friendlyPos="1"/>
    </busStop>
    <busStop id="-5310867778" name="Terminal Atenas" lane="-549800868_0" startPos="0.00" endPos="5.71" friendlyPos="true" lines="203">
        <access lane="1344685758_0" pos="3.98" length="21.10" friendlyPos="1"/>
        <access lane="30721346#0_0" pos="0.00" length="24.58" friendlyPos="1"/>
        <access lane="31437758#1_0" pos="28.52" length="31.07" friendlyPos="1"/>
        <access lane="549800867_0" pos="0.20" length="22.29" friendlyPos="1"/>
        <access lane="82877651_0" pos="61.32" length="32.78" friendlyPos="1"/>
    </busStop>
    <busStop id="-5824465670" name="Calle Blancos" lane="227891840#3_0" startPos="175.07" endPos="375.07" friendlyPos="true">
        <access lane="-25856531#1_0" pos="0.00" length="92.93" friendlyPos="1"/>
        <access lane="-25856531#3_0" pos="28.88" length="30.22" friendlyPos="1"/>
        <access lane="-39011719#1_0" pos="139.54" length="86.50" friendlyPos="1"/>
        <access lane="25856531#2_0" pos="43.06" length="44.62" friendlyPos="1"/>
        <access lane="39011719#0_0" pos="1.42" length="91.30" friendlyPos="1"/>
    </busStop>
    <busStop id="10719766598" lane="440793505#10_0" startPos="47.19" endPos="47.19" friendlyPos="true" lines="1">
        <access lane="25113486_0" pos="63.80" length="77.76" friendlyPos="1"/>
        <access lane="389987214#0_0" pos="62.24" length="67.65" friendlyPos="1"/>
        <access lane="66040724#0_0" pos="0.00" length="83.21" friendlyPos="1"/>
        <access lane="807603679#0_0" pos="0.00" length="73.93" friendlyPos="1"/>
        <access lane="807603679#1_0" pos="0.00" length="77.37" friendlyPos="1"/>
    </busStop>
    <busStop id="10857092910" name="Terminal Santa Ana" lane="549800867_0" startPos="0.00" endPos="6.49" friendlyPos="true" lines="R09"/>
    <busStop id="12452606525" name="Gimnasio Nacional" lane="220669507#0_0" startPos="1.78" endPos="16.78" friendlyPos="true" lines="R09">
        <access lane="1038938828_0" pos="0.00" length="113.06" friendlyPos="1"/>
        <access lane="25094079_0" pos="31.09" length="154.75" friendlyPos="1"/>
        <access lane="299866719#0_0" pos="76.04" length="144.83" friendlyPos="1"/>
        <access lane="299866719#1_0" pos="0.00" length="149.76" friendlyPos="1"/>
        <access lane="655657657_0" pos="73.44" length="39.33" friendlyPos="1"/>
    </busStop>
    <busStop id="12453512209" name="Torre Mercedes" lane="423270143#0_0" startPos="44.63" endPos="59.63" friendlyPos="true" lines="Ruta 9 Santa Ana - San José"/>
    <busStop id="12453512211" name="Park Inn" lane="13774544#6_0" startPos="56.94" endPos="71.94" friendlyPos="true" lines="Ruta 9 Santa Ana - San José"/>
    <busStop id="12453512212" name="Sarmiento" lane="1344679503#1_0" startPos="59.63" endPos="74.63" friendlyPos="true" lines="Ruta 9 Santa Ana - San José"/>
    <busStop id="1833745692" name="Avenida Central de Guadalupe" lane="1196913410_0" startPos="20.58" endPos="35.58" friendlyPos="true"/>
    <busStop id="2698004040" name="Parada Parque Nacional" lane="657749008_0" startPos="0.00" endPos="15.00" friendlyPos="true" lines="142"/>
    <busStop id="278449879" name="Contraloría" lane="25841648#0_0" startPos="1204.03" endPos="1404.03" friendlyPos="true" lines="1">
        <access lane="389745886#1_0" pos="279.40" length="65.40" friendlyPos="1"/>
    </busStop>
    <busStop id="289555266" name="La Salle" lane="25841648#0_0" startPos="267.00" endPos="467.00" friendlyPos="true" lines="1"/>
    <busStop id="3655894875" name="Registro Nacional Oeste - Paseo Colón" lane="298981555#0_0" startPos="14.38" endPos="29.38" friendlyPos="true" lines="203"/>
    <busStop id="3950755435" name="Parada de bus San José - Barrio Escalante y Carmiol - San Pedro - San José" lane="179736579#0_0" startPos="2.33" endPos="17.33" friendlyPos="true" lines="Ruta 08 San José - Ruta Periférica"/>
    <busStop id="3950802957" name="Parque John F. Kennedy" lane="1221406798#4_0" startPos="8.56" endPos="23.56" friendlyPos="true" lines="Ruta 08 San José - Ruta Periférica"/>
    <busStop id="4092185441" name="Parada bus Periférica L4" lane="222665295#1_0" startPos="33.03" endPos="48.03" friendlyPos="true">
        <access lane="-25097123#4_0" pos="0.00" length="74.98" friendlyPos="1"/>
        <access lane="-25401160#0_0" pos="71.80" length="155.60" friendlyPos="1"/>
        <access lane="25097123#4_0" pos="106.61" length="70.26" friendlyPos="1"/>
        <access lane="25097142_0" pos="74.83" length="186.57" friendlyPos="1"/>
        <access lane="25401160#0_0" pos="0.00" length="158.81" friendlyPos="1"/>
    </busStop>
    <busStop id="4098834270" name="Parada Municipalidad de Goicoechea 1" lane="24855888#0_0" startPos="87.67" endPos="102.67" friendlyPos="true"/>
    <busStop id="4098870366" name="Parada Parque España" lane="310175370#0_0" startPos="203.05" endPos="218.05" friendlyPos="true" lines="142"/>
    <busStop id="4098870368" name="Parada Hospital Calderón Guardia" lane="698899190#27_0" startPos="56.29" endPos="71.29" friendlyPos="true"/>
    <busStop id="4098870369" name="Parada Antigua Aduana" lane="298981125#0_0" startPos="51.61" endPos="66.61" friendlyPos="true" lines="142"/>
    <busStop id="4100624695" name="San José" lane="549800868_0" startPos="0.00" endPos="5.71" friendlyPos="true" lines="203">
        <access lane="1344685758_0" pos="1.06" length="21.09" friendlyPos="1"/>
        <access lane="30721346#0_0" pos="0.00" length="27.37" friendlyPos="1"/>
        <access lane="549800865_0" pos="57.55" length="32.56" friendlyPos="1"/>
        <access lane="549800867_0" pos="0.00" length="17.26" friendlyPos="1"/>
        <access lane="82877651_0" pos="61.32" length="27.82" friendlyPos="1"/>
    </busStop>
    <busStop id="4628999924" name="Atlántico" lane="468564875#0_0" startPos="0.00" endPos="106.06" friendlyPos="true" lines="2">
        <access lane="260831609_0" pos="39.68" length="74.32" friendlyPos="1"/>
        <access lane="260831616#0_0" pos="0.00" length="74.39" friendlyPos="1"/>
        <access lane="380133292_0" pos="2.83" length="43.59" friendlyPos="1"/>
        <access lane="388500922#0_0" pos="110.19" length="48.48" friendlyPos="1"/>
        <access lane="657749175#0_0" pos="0.00" length="59.05" friendlyPos="1"/>
    </busStop>
    <busStop id="4628999924@6559533" name="Atlántico" lane="1038934246#3_0" startPos="0.00" endPos="85.63" friendlyPos="true" lines="4 2 1">
        <access lane="260831609_0" pos="39.68" length="74.32" friendlyPos="1"/>
        <access lane="260831616#0_0" pos="0.00" length="74.39" friendlyPos="1"/>
        <access lane="380133292_0" pos="2.83" length="43.59" friendlyPos="1"/>
        <access lane="388500922#0_0" pos="110.19" length="48.48" friendlyPos="1"/>
        <access lane="657749175#0_0" pos="0.00" length="59.05" friendlyPos="1"/>
    </busStop>
    <busStop id="4628999925" name="Estación Atlántico" lane="1038934246#3_0" startPos="53.05" endPos="68.05" friendlyPos="true" lines="4 1">
        <access lane="260831609_0" pos="39.68" length="79.51" friendlyPos="1"/>
        <access lane="260831616#0_0" pos="13.88" length="75.50" friendlyPos="1"/>
        <access lane="380133292_0" pos="0.00" length="52.51" friendlyPos="1"/>
        <access lane="388500922#0_0" pos="99.14" length="40.38" friendlyPos="1"/>
        <access lane="657749175#0_0" pos="0.00" length="58.80" friendlyPos="1"/>
    </busStop>
    <busStop id="4629001928" name="Colima" lane="25549799#0_0" startPos="803.32" endPos="1003.32" friendlyPos="true" lines="2">
        <access lane="-223219193_0" pos="0.00" length="42.74" friendlyPos="1"/>
        <access lane="-319177395#1_0" pos="52.22" length="15.46" friendlyPos="1"/>
        <access lane="223219193_0" pos="39.76" length="38.87" friendlyPos="1"/>
        <access lane="319177395#0_0" pos="20.57" length="20.26" friendlyPos="1"/>
        <access lane="344140363#0_0" pos="0.00" length="90.98" friendlyPos="1"/>
    </busStop>
    <busStop id="4636012378" name="La Corte" lane="298488302#9_0" startPos="0.00" endPos="200.00" friendlyPos="true" lines="1">
        <access lane="-1174311037_0" pos="37.24" length="10.92" friendlyPos="1"/>
        <access lane="1174311037_0" pos="25.35" length="6.12" friendlyPos="1"/>
        <access lane="25401072#0_0" pos="2.79" length="47.25" friendlyPos="1"/>
        <access lane="71075230#10_0" pos="0.00" length="63.55" friendlyPos="1"/>
        <access lane="71075230#9_0" pos="51.91" length="34.89" friendlyPos="1"/>
    </busStop>
    <busStop id="4636012379" name="Plaza Cleto González Víquez" lane="440793505#10_0" startPos="0.00" endPos="148.09" friendlyPos="true" lines="1">
        <access lane="25113486_0" pos="73.84" length="82.02" friendlyPos="1"/>
        <access lane="389987214#0_0" pos="72.22" length="72.16" friendlyPos="1"/>
        <access lane="66040724#0_0" pos="0.00" length="82.22" friendlyPos="1"/>
        <access lane="807603679#0_0" pos="0.00" length="72.52" friendlyPos="1"/>
        <access lane="807603679#1_0" pos="0.00" length="74.71" friendlyPos="1"/>
    </busStop>
    <busStop id="4636012380" name="Pacífico" lane="446753979#15_0" startPos="6.58" endPos="206.58" friendlyPos="true" lines="1">
        <access lane="25373470#4_0" pos="73.20" length="95.90" friendlyPos="1"/>
        <access lane="25373470#5_0" pos="47.83" length="36.63" friendlyPos="1"/>
        <access lane="25373470#8_0" pos="0.00" length="89.68" friendlyPos="1"/>
        <access lane="299887260#2_0" pos="59.72" length="86.06" friendlyPos="1"/>
        <access lane="299887266#0_0" pos="0.00" length="92.11" friendlyPos="1"/>
    </busStop>
    <busStop id="4636012381" name="Cuba" lane="446753979#2_0" startPos="155.24" endPos="355.24" friendlyPos="true" lines="1">
        <access lane="1179658032#2_0" pos="23.73" length="20.51" friendlyPos="1"/>
        <access lane="383269253#2-AddedOnRampEdge_0" pos="94.51" length="14.93" friendlyPos="1"/>
        <access lane="383269253#2_0" pos="1.84" length="7.04" friendlyPos="1"/>
        <access lane="383269253#3_0" pos="0.00" length="62.40" friendlyPos="1"/>
        <access lane="415556265#0_0" pos="114.70" length="61.87" friendlyPos="1"/>
    </busStop>
    <busStop id="5310867775" name="Centro Nacional Rehabilitación" lane="31743949#2_0" startPos="52.58" endPos="67.58" friendlyPos="true" lines="203"/>
    <busStop id="5310867776" name="Hospital de Niños - Paseo Colón" lane="423270142#0_0" startPos="23.11" endPos="38.11" friendlyPos="true" lines="203"/>
    <busStop id="5310867777" name="Corobicí - General Cañas" lane="389754235_0" startPos="52.38" endPos="67.38" friendlyPos="true" lines="203">
        <access lane="-25401003#2_0" pos="61.76" length="33.92" friendlyPos="1"/>
        <access lane="-655655655#4_0" pos="204.41" length="52.39" friendlyPos="1"/>
        <access lane="25401003#0_0" pos="128.31" length="38.72" friendlyPos="1"/>
        <access lane="31743949#3_0" pos="99.99" length="109.28" friendlyPos="1"/>
        <access lane="34006632_0" pos="0.00" length="47.95" friendlyPos="1"/>
    </busStop>
    <busStop id="5310867778" name="Terminal Atenas" lane="549800868_0" startPos="0.00" endPos="5.71" friendlyPos="true" lines="203">
        <access lane="1344685758_0" pos="3.98" length="21.10" friendlyPos="1"/>
        <access lane="30721346#0_0" pos="0.00" length="24.58" friendlyPos="1"/>
        <access lane="31437758#1_0" pos="28.52" length="31.07" friendlyPos="1"/>
        <access lane="549800867_0" pos="0.20" length="22.29" friendlyPos="1"/>
        <access lane="82877651_0" pos="61.32" length="32.78" friendlyPos="1"/>
    </busStop>
    <busStop id="5311344479" name="San José" lane="549832822_0" startPos="29.92" endPos="44.92" friendlyPos="true" lines="200"/>
    <busStop id="5501954525" name="Bus Barrio Luján" lane="366059389#3_0" startPos="50.86" endPos="65.86" friendlyPos="true"/>
    <busStop id="5501955422" name="Luján - San José" lane="135050788#1_0" startPos="13.62" endPos="28.62" friendlyPos="true"/>
    <busStop id="5824465670" name="Calle Blancos" lane="716772051#2_0" startPos="0.00" endPos="200.00" friendlyPos="true" lines="2">
        <access lane="-25856531#1_0" pos="0.00" length="92.93" friendlyPos="1"/>
        <access lane="-25856531#3_0" pos="28.88" length="30.22" friendlyPos="1"/>
        <access lane="-39011719#1_0" pos="139.54" length="86.50" friendlyPos="1"/>
        <access lane="25856531#2_0" pos="43.06" length="44.62" friendlyPos="1"/>
        <access lane="39011719#0_0" pos="1.42" length="91.30" friendlyPos="1"/>
    </busStop>
    <busStop id="6812665584" name="Paradas Escazú-San José" lane="1344679503#1_0" startPos="59.64" endPos="74.64" friendlyPos="true" lines="R09 Ruta 9 Santa Ana - San José"/>
    <busStop id="6812679486" name="Paradas San José-Escazu" lane="1344685755#1_0" startPos="38.82" endPos="53.82" friendlyPos="true" lines="R09"/>
</additional>
